<?xml version="1.0" encoding="UTF-8"?>

<!-- generated on 08/29/20 15:26:31 by SUMO duarouter Version 0.32.0
<?xml version="1.0" encoding="UTF-8"?>

<configuration xmlns:xsi="http://www.w3.org/2001/XMLSchema-instance" xsi:noNamespaceSchemaLocation="http://sumo.dlr.de/xsd/duarouterConfiguration.xsd">

    <input>
        <net-file value="osm.net.xml"/>
        <additional-files value="osm_stops.add.xml,osm_pt.rou.xml"/>
        <route-files value="osm.pedestrian.trips.xml"/>
    </input>

    <output>
        <output-file value="osm.pedestrian.rou.xml"/>
        <alternatives-output value="osm.pedestrian.rou.alt.xml"/>
    </output>

    <processing>
        <ignore-errors value="true"/>
    </processing>

    <time>
        <begin value="0"/>
        <end value="3600.0"/>
    </time>

    <report>
        <no-warnings value="true"/>
        <no-step-log value="true"/>
    </report>

</configuration>
-->

<routes xmlns:xsi="http://www.w3.org/2001/XMLSchema-instance" xsi:noNamespaceSchemaLocation="http://sumo.dlr.de/xsd/routes_file.xsd">
    <person id="ped1" depart="29.51">
        <walk edges="205831154#3 -205831154#2 389801985#8 389801713#0 13008859#3 13008859#4"/>
    </person>
    <person id="ped2" depart="59.03">
        <walk edges="573555404#0 573555404#1 573555404#2 573555404#3 573555404#4 573555404#5 573555404#6 573555404#7" busStop="119662884"/>
        <walk edges="573555404#8" busStop="763083375"/>
        <walk edges="34248410#1 62333277 249888431#0 249888431#1 7996708#0 7996708#1 7996708#3 210406820 212783666#2 212783666#1 40694084#4"/>
    </person>
    <person id="ped3" depart="88.54">
        <walk edges="7996707#1 7996707#0 7996708#3 7996708#1 7996708#0 249888431#1 249888431#0 62333277 34248410#1" busStop="763083375"/>
        <walk edges="573555404#8" busStop="119662884"/>
        <walk edges="573555404#7 573555404#6 573555404#5 573555404#4 573555404#3 573555404#2 573555404#1 573555404#0 -573555402"/>
    </person>
    <person id="ped5" depart="147.57">
        <walk edges="13008859#3 389801713#0 389801985#8 389801985#7 389801985#6 389187600#0"/>
    </person>
    <person id="ped7" depart="206.60">
        <walk edges="406645953#2 8106512#0 8106512#1 389801985#16 389801985#15" busStop="763083606"/>
        <walk edges="4812029#0 4812029#1 389801985#11 389801985#10"/>
    </person>
    <person id="ped8" depart="236.11">
        <walk edges="13008859#3 389801713#0 389801985#8 389801985#7 389801985#6 389801985#5"/>
    </person>
    <person id="ped9" depart="265.63">
        <walk edges="5924282 -5924283#1 -5924283#0 -4812819 62225057#0 62225057#1 406645953#0 389801985#18 389801985#17 389801985#16 389801985#15" busStop="763083606"/>
        <walk edges="4812029#0 4812029#1 389801985#11 -163384655#1"/>
    </person>
    <person id="ped11" depart="324.66">
        <walk edges="209235303#8 209235303#7 389801713#1 389801713#0 389801985#8 389801985#7 389801985#6 389801985#5 389801985#4" busStop="119662884"/>
        <walk edges="573555404#8" busStop="763083375"/>
        <walk edges="573555404#10 573555404#11 573555404#12 573555404#13 389187600#2 389187600#3 406645953#0 -7996708#0"/>
    </person>
    <person id="ped12" depart="354.17">
        <walk edges="8098931#2 -8098931#1 209235303#3 209235303#4 209235303#5 209235303#6 209235303#7 209235303#8"/>
    </person>
    <person id="ped13" depart="383.68">
        <walk edges="-573555403#0 -573555403#1"/>
    </person>
    <person id="ped14" depart="413.20">
        <walk edges="592688632#2 -592688632#2 7996708#1 7996708#0 249888431#1 249888431#0 62333277 34248410#1" busStop="763083375"/>
        <walk edges="573555404#8" busStop="119662884"/>
        <walk edges="389801985#4 389801985#5 389801985#6 389801985#7 389801985#8"/>
    </person>
    <person id="ped16" depart="472.23">
        <walk edges="389801985#0 389801985#1" busStop="119662884"/>
        <walk edges="573555404#8" busStop="763083375"/>
        <walk edges="34248410#1 62333277 249888432 311905726#4 8098935"/>
    </person>
    <person id="ped17" depart="501.74">
        <walk edges="249888431#0 249888431#1 406645953#0 389801985#18 389801985#17 389801985#16 389801985#15" busStop="763083606"/>
        <walk edges="389801985#13 389801985#12"/>
    </person>
    <person id="ped18" depart="531.25">
        <walk edges="592688630 389801985#15" busStop="763083606"/>
        <walk edges="4812029#0 4812029#1 389801985#11 389801985#10 389801985#9 389801713#0 389801713#1 209235303#7 209235303#8 406645949#1 406645949#0"/>
    </person>
    <person id="ped19" depart="560.77">
        <walk edges="592688634 323149841#1 8106511 62225057#0 62225057#1 406645953#0 389801985#18"/>
    </person>
    <person id="ped20" depart="590.28">
        <walk edges="4812819 211479827 210406807 34248411 425899625#1 425899625#0 13008851#1 -205831154#3"/>
    </person>
    <person id="ped21" depart="619.80">
        <walk edges="163384655#1 209235298"/>
    </person>
    <person id="ped22" depart="649.31">
        <walk edges="-32643415 -5924283#0 -4812819 62225057#0 62225057#1 406645953#0 389801985#18 389801985#17 389801985#16 389801985#15" busStop="763083606"/>
        <walk edges="4812029#0 4812029#1 389801985#11 163384655#2"/>
    </person>
    <person id="ped24" depart="708.34">
        <walk edges="406645950 406645949#0 406645949#1 406645949#2 13008851#0 13008851#1 425899625#0 -573555402 573555404#0 573555404#1 573555404#2 573555404#3 573555404#4 573555404#5 573555404#6 573555404#7" busStop="119662884"/>
        <walk edges="573555404#8" busStop="763083375"/>
        <walk edges="34248410#1 62333277 249888431#0 249888431#1 7996708#0 7996708#1 7996708#3 210406820 212783666#2 212783666#1 212783666#0"/>
    </person>
    <person id="ped25" depart="737.85">
        <walk edges="212783666#1 212783666#2 210406820 7996708#3 7996708#1 7996708#0 249888431#1 249888431#0 62333277 34248410#1" busStop="763083375"/>
        <walk edges="573555404#8" busStop="119662884"/>
        <walk edges="389801985#4 389801985#5 389801985#6 389801985#7 389801985#8 389801713#0 13008859#2 13008859#1"/>
    </person>
    <person id="ped26" depart="767.37">
        <walk edges="205831154#1 389801985#10 389801985#11 4812029#1 4812029#0" busStop="763083606"/>
        <walk edges="389801985#15 389801985#16 8106512#2 7996710#3"/>
    </person>
    <person id="ped27" depart="796.88">
        <walk edges="406645953#2 573555404#14 573555404#13 573555404#12 573555404#11 573555404#10" busStop="763083375"/>
        <walk edges="573555404#8" busStop="119662884"/>
        <walk edges="389801985#4 389801985#5 389801985#6 389801985#7 389801985#8 389801713#0 389801713#1 209235303#6 209235303#5 209235303#4 389808131"/>
    </person>
    <person id="ped28" depart="826.40">
        <walk edges="-8098931#2 8098931#1 8098931#0 34248409#3 -205831154#0 205831154#1 389801985#7 573555403#0"/>
    </person>
    <person id="ped29" depart="855.91">
        <walk edges="-8098931#0 34248409#3" busStop="776633284"/>
        <ride busStop="3403547911" lines="55:0"/>
        <walk edges="5924284 5924283#1 5924283#0 4812819 211479827 249888432 249888431#0"/>
    </person>
    <person id="ped30" depart="885.42">
        <walk edges="8106512#1 389801985#17 389801985#18 406645953#0"/>
    </person>
    <person id="ped31" depart="914.94">
        <walk edges="389801985#13" busStop="763083606"/>
        <walk edges="389801985#15 389801985#16 389801985#17 389801985#18 389187600#3 389187600#2 573555404#13 573555404#12 573555404#11 573555404#10" busStop="763083375"/>
        <walk edges="573555404#8" busStop="119662884"/>
        <walk edges="573555404#7 573555404#6 573555404#5 573555404#4 573555404#3 573555404#2 573555404#1 573555404#0 -573555402 425899625#0"/>
    </person>
    <person id="ped32" depart="944.45">
        <walk edges="592688632#1 212783666#2 210406820 7996708#3 7996708#1 7996708#0 249888431#1 249888431#0 62333277 34248410#1" busStop="763083375"/>
        <walk edges="573555404#8" busStop="119662884"/>
        <walk edges="573555404#7 573555404#6 573555404#5 573555404#4 573555404#3"/>
    </person>
    <person id="ped33" depart="973.97">
        <walk edges="163384655#1 389801985#10 -205831154#0"/>
    </person>
    <person id="ped34" depart="1003.48">
        <walk edges="209235303#3 8098931#0 34248409#3 -205831154#0 205831154#1"/>
    </person>
    <person id="ped35" depart="1033.00">
        <walk edges="13008859#1 13008859#2 389801713#0 389801985#9 389801985#10 389801985#11 4812029#1 4812029#0" busStop="763083606"/>
        <walk edges="389801985#15 389801985#16 8106512#2 7996710#3 7996710#4"/>
    </person>
    <person id="ped36" depart="1062.51">
        <walk edges="62225057#1 406645953#0 389801985#18 389801985#17 389801985#16 389801985#15" busStop="763083606"/>
        <walk edges="389801985#13 389801985#12 4812029#2 34248409#0 209235303#1 209235303#2 209235303#3"/>
    </person>
    <person id="ped37" depart="1092.02">
        <walk edges="406645953#4 406645953#3 406645953#2 406645953#1 406645953#0 7996708#0 311905726#1"/>
    </person>
    <person id="ped38" depart="1121.54">
        <walk edges="7996708#1 7996708#0 62225057#1 62225057#0 -4812819 -5924283#0 32643415"/>
    </person>
    <person id="ped40" depart="1180.57">
        <walk edges="389801985#14" busStop="763083606"/>
        <walk edges="4812029#0 4812029#1 389801985#11 389801985#10 205831154#0"/>
    </person>
    <person id="ped41" depart="1210.08">
        <walk edges="389801985#4" busStop="119662884"/>
        <walk edges="573555404#8" busStop="763083375"/>
        <walk edges="34248410#1 62333277 249888431#0 249888431#1 7996708#0 7996708#1 7996708#3 7996707#0 7996707#1 7996707#2"/>
    </person>
    <person id="ped42" depart="1239.59">
        <walk edges="311905726#1 7996708#0 249888431#1 249888431#0 62333277 34248410#1" busStop="763083375"/>
        <walk edges="573555404#8" busStop="119662884"/>
        <walk edges="389801985#4 389801985#5 389801985#6 389801985#7 389801985#8 389801713#0 13008859#3"/>
    </person>
    <person id="ped43" depart="1269.11">
        <walk edges="817186348 406645953#3 406645953#2 573555404#14 389187600#1"/>
    </person>
    <person id="ped44" depart="1298.62">
        <walk edges="-573555403#0 389801985#7 -205831154#2 -205831154#3"/>
    </person>
    <person id="ped45" depart="1328.14">
        <walk edges="-5924283#1 -5924283#0 4812819 211479827 210406807 34248411 425899625#1 425899625#0 13008851#1 13008851#0 406645949#2"/>
    </person>
    <person id="ped46" depart="1357.65">
        <walk edges="573555404#7 573555404#6 573555404#5 573555404#4 573555404#3 573555404#2 573555404#1 573555404#0 -573555402 425899625#0 13008851#1 13008851#0 406645949#2 209235303#9 311905726#6"/>
    </person>
    <person id="ped47" depart="1387.16">
        <walk edges="-209235298 163384657 406645953#4 406645953#3 406645953#2 406645953#1 406645953#0 249888431#1 249888431#0"/>
    </person>
    <person id="ped48" depart="1416.68">
        <walk edges="817186348 406645953#4 163384657 163384655#1 389801985#10 389801985#9 389801713#0 389801713#1"/>
    </person>
    <person id="ped49" depart="1446.19">
        <walk edges="8098934#1 209235299 8098931#2 8098931#1 209235303#2 209235303#1 34248409#0 4812029#2 389801985#12 389801985#13" busStop="763083606"/>
        <walk edges="389801985#15 389801985#16 389801985#17 389801985#18 406645953#0 62225057#1 62225057#0 8106511 323149841#1 592688634"/>
    </person>
    <person id="ped50" depart="1475.71">
        <walk edges="-163384655#2 34248409#2 34248409#3 8098931#0 209235303#2 539249086"/>
    </person>
    <person id="ped51" depart="1505.22">
        <walk edges="425899624 62333277 34248410#1" busStop="763083375"/>
        <walk edges="573555404#8" busStop="119662884"/>
        <walk edges="389801985#1"/>
    </person>
    <person id="ped52" depart="1534.74">
        <walk edges="205831154#1 389801985#10 389801985#11 4812029#1 4812029#0" busStop="763083606"/>
        <walk edges="389801985#15 389801985#16 389801985#17 389801985#18 406645953#1"/>
    </person>
    <person id="ped53" depart="1564.25">
        <walk edges="-5924283#1 -5924283#0 -4812819 62225057#0 311905726#2 311906769#0 311906769#1"/>
    </person>
    <person id="ped54" depart="1593.76">
        <walk edges="323149841#3 323149841#2 323149841#1 8106511 62225057#0 62225057#1 406645953#0 389801985#18 389801985#17 389801985#16 389801985#15" busStop="763083606"/>
        <walk edges="389801985#13 389801985#12 4812029#2 34248409#0 209235303#1 209235303#2 8098931#1"/>
    </person>
    <person id="ped55" depart="1623.28">
        <walk edges="62225057#1 406645953#0 389801985#18 389801985#17 389801985#16 389801985#15" busStop="763083606"/>
        <walk edges="4812029#0 4812029#1 389801985#11 389801985#10 205831154#0"/>
    </person>
    <person id="ped56" depart="1652.79">
        <walk edges="353879096#3 13008849#2 209235303#4 209235303#3 8098931#0 34248409#3 -205831154#0 389801985#10 163384655#1 163384657 406645953#4 -817186348"/>
    </person>
    <person id="ped57" depart="1682.31">
        <walk edges="7996708#0 62225057#1 62225057#0"/>
    </person>
    <person id="ped58" depart="1711.82">
        <walk edges="209235300 209235277#1 -8098931#1 209235303#2 209235303#1 34248409#0 4812029#2 389801985#12 389801985#13" busStop="763083606"/>
        <walk edges="389801985#15 389801985#16 389801985#17 389801985#18 406645953#0"/>
    </person>
    <person id="ped59" depart="1741.33">
        <walk edges="389801985#9 389801985#8 389801985#7 389801985#6 389801985#5 389801985#4" busStop="119662884"/>
        <walk edges="573555404#8" busStop="763083375"/>
        <walk edges="34248410#1 62333277 249888431#0 249888431#1 7996708#0 7996708#1 7996708#3 -7996707#0"/>
    </person>
    <person id="ped60" depart="1770.85">
        <walk edges="573555404#13 573555404#12 573555404#11 573555404#10" busStop="763083375"/>
        <walk edges="573555404#8" busStop="119662884"/>
        <walk edges="389801985#1"/>
    </person>
    <person id="ped61" depart="1800.36">
        <walk edges="573555404#4 573555404#3 573555404#2 573555404#1 573555404#0 -573555403#0 389801985#7 389801985#8 389801713#0 389801713#1"/>
    </person>
    <person id="ped62" depart="1829.88">
        <walk edges="-163384655#0 163384655#1 389801985#10 389801985#9 389801713#0 389801713#1 209235303#6 209235303#5"/>
    </person>
    <person id="ped64" depart="1888.91">
        <walk edges="62333277 34248410#1" busStop="763083375"/>
        <walk edges="573555404#10 573555404#11 573555404#12 573555404#13 389187600#2 389187600#3 389801985#18 389801985#17 389801985#16 592688630"/>
    </person>
    <person id="ped65" depart="1918.42">
        <walk edges="209235303#1 209235303#2 8098931#1 -209235277#1"/>
    </person>
    <person id="ped66" depart="1947.93">
        <walk edges="62333277 34248410#1" busStop="763083375"/>
        <walk edges="573555404#8" busStop="119662884"/>
        <walk edges="389801985#4 389801985#5 389801985#6 389801985#7 205831154#1 -205831154#0 34248409#3 8098931#0"/>
    </person>
    <person id="ped67" depart="1977.45">
        <walk edges="-4812819 62225057#0 311905726#2 311906769#0 249888431#0 62333277 34248410#1" busStop="763083375"/>
        <walk edges="573555404#8" busStop="119662884"/>
        <walk edges="389801985#1 34248410#1"/>
    </person>
    <person id="ped68" depart="2006.96">
        <walk edges="-209235304 8098931#1 8098931#0 34248409#3 -205831154#0 205831154#1 389801985#7 389801985#6 389801985#5 389801985#4" busStop="119662884"/>
        <walk edges="573555404#8" busStop="763083375"/>
        <walk edges="573555404#10 573555404#11 573555404#12 573555404#13"/>
    </person>
    <person id="ped69" depart="2036.48">
        <walk edges="573555404#14 406645953#1 406645953#0 7996708#0 7996708#1 -592688632#2"/>
    </person>
    <person id="ped70" depart="2065.99">
        <walk edges="34248409#3 -205831154#0 389801985#10 389801985#11"/>
    </person>
    <person id="ped71" depart="2095.50">
        <walk edges="205831154#1 389801985#7 389801985#6 389801985#5 389801985#4" busStop="119662884"/>
        <walk edges="573555404#8" busStop="763083375"/>
        <walk edges="34248410#1 62333277 249888431#0 311906769#0 311905726#2 62225057#0"/>
    </person>
    <person id="ped72" depart="2125.02">
        <walk edges="311905726#7 311905726#6 209235303#9 209235303#8 209235303#7 389801713#1 13008859#2 13008859#1"/>
    </person>
    <person id="ped73" depart="2154.53">
        <walk edges="389801985#1" busStop="119662884"/>
        <walk edges="573555404#7 573555404#6 573555404#5 573555404#4 573555404#3 573555404#2 573555404#1 573555404#0 573555403#0"/>
    </person>
    <person id="ped74" depart="2184.05">
        <walk edges="13008851#1 -205831154#3 -205831154#2 205831154#1 -205831154#0 34248409#3 8098931#0 209235303#2"/>
    </person>
    <person id="ped75" depart="2213.56">
        <walk edges="8106512#2 8106512#1 8106512#0 406645953#2"/>
    </person>
    <person id="ped76" depart="2243.08">
        <walk edges="311906769#2 389187600#2"/>
    </person>
    <person id="ped77" depart="2272.59">
        <walk edges="-592688632#0 -7996707#0 7996708#3 7996708#1 7996708#0 249888431#1 249888431#0 62333277 34248410#1" busStop="763083375"/>
        <walk edges="573555404#8" busStop="119662884"/>
        <walk edges="389801985#4 389801985#5 389801985#6 389801985#7 389801985#8 389801713#0 13008859#3 13008859#4"/>
    </person>
    <person id="ped78" depart="2302.10">
        <walk edges="209235303#8 209235303#7 389801713#1 389801713#0 389801985#8 389801985#7 389801985#6 389801985#5"/>
    </person>
    <person id="ped79" depart="2331.62">
        <walk edges="163384655#1 389801985#10 389801985#9 389801713#0 13008859#3"/>
    </person>
    <person id="ped80" depart="2361.13">
        <walk edges="-209235304 -8098931#1 209235303#3 209235303#4 209235303#5 209235303#6 209235303#7 209235303#8 406645949#2"/>
    </person>
    <person id="ped81" depart="2390.65">
        <walk edges="163384655#1 163384657 406645953#4 406645953#3 406645953#2 406645953#1 406645953#0 62225057#1 62225057#0 8106511 7996707#4"/>
    </person>
    <person id="ped82" depart="2420.16">
        <walk edges="592688634 323149841#1 8106511 62225057#0 62225057#1 406645953#0 389801985#18 389801985#17 389801985#16 389801985#15" busStop="763083606"/>
        <walk edges="389801985#13 389801985#12 4812029#2 34248409#0 209235303#1 209235303#2 8098931#1 -209235304"/>
    </person>
    <person id="ped83" depart="2449.67">
        <walk edges="163384657 406645953#4 406645953#3 406645953#2 406645953#1 406645953#0 7996708#0 7996708#1 7996708#3 7996707#0 7996707#1 40694084#3"/>
    </person>
    <person id="ped84" depart="2479.19">
        <walk edges="13008859#2 389801713#0 389801985#8 389801985#7 389801985#6 389801985#5 389801985#4" busStop="119662884"/>
        <walk edges="573555404#8" busStop="763083375"/>
        <walk edges="34248410#1 62333277 249888431#0 249888431#1 7996708#0 7996708#1 -592688632#3"/>
    </person>
    <person id="ped85" depart="2508.70">
        <walk edges="7996710#2 8106512#2 389801985#16"/>
    </person>
    <person id="ped86" depart="2538.22">
        <walk edges="34248409#2 -205831154#0 205831154#1 389801985#7 -573555403#0 573555404#0 573555404#1 573555404#2 573555404#3 573555404#4 573555404#5"/>
    </person>
    <person id="ped88" depart="2597.25">
        <walk edges="-573555403#1 389801985#6 389801985#5 389801985#4" busStop="119662884"/>
        <walk edges="573555404#8" busStop="763083375"/>
        <walk edges="34248410#1 62333277 249888431#0 311906769#0"/>
    </person>
    <person id="ped89" depart="2626.76">
        <walk edges="311905726#7 311905726#6 209235303#9 209235303#8 209235303#7 209235303#6 209235303#5 209235303#4 209235303#3 209235303#2 209235303#1 34248409#1"/>
    </person>
    <person id="ped90" depart="2656.27">
        <walk edges="573555403#0 573555404#0 573555404#1 573555404#2 573555404#3 573555404#4 573555404#5 573555404#6 573555404#7" busStop="119662884"/>
        <walk edges="573555404#8" busStop="763083375"/>
        <walk edges="34248410#1 62333277 249888431#0 249888431#1 7996708#0 7996708#1 7996708#3 210406820 212783666#2 212783666#1 40694084#4"/>
    </person>
    <person id="ped91" depart="2685.79">
        <walk edges="8106512#0 406645953#2 573555404#14 573555404#13 573555404#12 573555404#11 573555404#10" busStop="763083375"/>
        <walk edges="573555404#8" busStop="119662884"/>
        <walk edges="389801985#4 389801985#5 389801985#6 -573555403#1"/>
    </person>
    <person id="ped92" depart="2715.30">
        <walk edges="311905726#2 311906769#0 249888431#0 62333277 34248410#1" busStop="763083375"/>
        <walk edges="573555404#8" busStop="119662884"/>
        <walk edges="389801985#4 389801985#5 389801985#6 389801985#7 389801985#8 389801713#0 389801713#1 209235303#7 209235303#8"/>
    </person>
    <person id="ped94" depart="2774.33">
        <walk edges="13008849#2 209235303#5 209235303#6 389801713#1 389801713#0 389801985#8 389801985#7 389801985#6 389801985#5 389801985#4" busStop="119662884"/>
        <walk edges="573555404#8" busStop="763083375"/>
        <walk edges="34248410#1 62333277 249888431#0 311906769#0 311905726#2 62225057#0 8106511 323149841#1 323149841#2"/>
    </person>
    <person id="ped95" depart="2803.84">
        <walk edges="311905726#6 209235303#9 209235303#8 209235303#7 209235303#6 209235303#5 209235303#4 209235303#3 -8098931#1 209235277#1 209235277#0"/>
    </person>
    <person id="ped97" depart="2862.87">
        <walk edges="323149841#1 592688634"/>
    </person>
    <person id="ped98" depart="2892.39">
        <walk edges="389801985#12 4812029#2 34248409#0 209235303#1 209235303#2 8098931#1 -209235277#1 -209235277#0"/>
    </person>
    <person id="ped99" depart="2921.90">
        <walk edges="817186348 406645953#3 8106512#0 8106512#1 8106512#2 7996710#3 592688631"/>
    </person>
    <person id="ped100" depart="2951.41">
        <walk edges="8098934#1 209235299 8098931#2 8098931#1 209235303#2 209235303#1 34248409#0 4812029#2 389801985#12 389801985#13" busStop="763083606"/>
        <walk edges="389801985#15 389801985#16 8106512#2 7996710#2 7996710#1 7996710#0"/>
    </person>
    <person id="ped101" depart="2980.93">
        <walk edges="592688632#2 7996710#1 7996710#2 8106512#2 389801985#16 389801985#15" busStop="763083606"/>
        <walk edges="389801985#13 389801985#12 4812029#2 34248409#0 209235303#1 209235303#2 -8098931#1"/>
    </person>
    <person id="ped102" depart="3010.44">
        <walk edges="34248410#1 389801985#1" busStop="119662884"/>
        <walk edges="389801985#4 389801985#5 389801985#6 389801985#7 389801985#8 389801713#0 13008859#2"/>
    </person>
    <person id="ped103" depart="3039.96">
        <walk edges="311905726#2 311906769#0 249888431#0 62333277 34248410#1" busStop="763083375"/>
        <walk edges="573555404#8" busStop="119662884"/>
        <walk edges="389801985#4 389801985#5 389801985#6 389801985#7 205831154#1 -205831154#0 34248409#3 8098931#0 8098931#1 -209235277#1"/>
    </person>
    <person id="ped104" depart="3069.47">
        <walk edges="249888431#0 249888431#1 406645953#0 406645953#1 406645953#2 8106512#0"/>
    </person>
    <person id="ped105" depart="3098.99">
        <walk edges="205831154#1 389801985#7 -573555403#0 573555404#0 573555404#1 573555404#2 573555404#3 573555404#4 573555404#5"/>
    </person>
    <person id="ped106" depart="3128.50">
        <walk edges="32643415 -5924283#0 4812819 211479827 210406807 34248411 425899625#1 425899625#0 13008851#1 13008851#0 406645949#2 209235303#9 311905726#6 311905726#7"/>
    </person>
    <person id="ped107" depart="3158.01">
        <walk edges="8098931#2 8098931#1 209235303#2 209235303#1 34248409#0 4812029#2 389801985#12 389801985#13" busStop="763083606"/>
        <walk edges="389801985#15 389801985#16 8106512#2"/>
    </person>
    <person id="ped108" depart="3187.53">
        <walk edges="389801985#13 389801985#12 4812029#2 34248409#0 209235303#1 539249086"/>
    </person>
    <person id="ped109" depart="3217.04">
        <walk edges="-7996708#0 311905726#0 389801985#17 389801985#16 389801985#15" busStop="763083606"/>
        <walk edges="389801985#13 389801985#12 4812029#2 34248409#0 209235303#1 209235303#2 -8098931#1 209235277#1 209235300"/>
    </person>
    <person id="ped110" depart="3246.56">
        <walk edges="8098934#1 209235299 8098931#2 8098931#1 209235303#2 209235303#1 34248409#0 4812029#2 389801985#12 389801985#13" busStop="763083606"/>
        <walk edges="389801985#15 389801985#16 389801985#17 389801985#18"/>
    </person>
    <person id="ped111" depart="3276.07">
        <walk edges="389801985#10 205831154#1 389801985#7 389801985#6 389801985#5 389801985#4" busStop="119662884"/>
        <walk edges="573555404#8" busStop="763083375"/>
        <walk edges="573555404#10"/>
    </person>
    <person id="ped112" depart="3305.58">
        <walk edges="-209235277#1 8098931#1 8098931#0 34248409#3 -205831154#0 205831154#1 389801985#7 389801985#6 389801985#5 389801985#4"/>
    </person>
    <person id="ped113" depart="3335.10">
        <walk edges="353879096#3 13008849#2 209235303#5 209235303#6 389801713#1 389801713#0 389801985#8 389801985#7 389801985#6 389801985#5 389801985#4" busStop="119662884"/>
        <walk edges="573555404#8" busStop="763083375"/>
        <walk edges="34248410#1 62333277 249888431#0 249888431#1 7996708#0 7996708#1 592688632#3"/>
    </person>
    <person id="ped114" depart="3364.61">
        <walk edges="-7996708#0 311905726#0 389801985#17 389801985#16 389801985#15" busStop="763083606"/>
        <walk edges="389801985#13 389801985#12 4812029#2 34248409#0 209235303#1 209235303#2 8098931#1 8098931#2 8098931#3"/>
    </person>
    <person id="ped115" depart="3394.13">
        <walk edges="-32643415 -5924283#0 4812819 211479827 249888432 62333277 34248410#1" busStop="763083375"/>
        <walk edges="573555404#8" busStop="119662884"/>
        <walk edges="389801985#4 389801985#5 389801985#6 389801985#7 389801985#8 389801713#0 389801713#1 209235303#6 209235303#5 13008849#0"/>
    </person>
    <person id="ped116" depart="3423.64">
        <walk edges="389801985#6 389801985#5 389801985#4" busStop="119662884"/>
        <walk edges="573555404#8" busStop="763083375"/>
        <walk edges="34248410#1 62333277 249888431#0 249888431#1 7996708#0 7996708#1 7996708#3 210406820 212783666#2 212783666#1 40694084#4"/>
    </person>
    <person id="ped117" depart="3453.16">
        <walk edges="163384655#2 389801985#11 4812029#1 4812029#0" busStop="763083606"/>
        <walk edges="389801985#15 389801985#16 8106512#2 7996710#2 7996710#1 7996710#0 212783666#2 -592688632#0"/>
    </person>
    <person id="ped119" depart="3512.18">
        <walk edges="389801985#6 389801985#7 389801985#8 389801713#0 389801713#1 209235303#7 209235303#8 406645949#1 406645949#0"/>
    </person>
    <person id="ped120" depart="3541.70">
        <walk edges="311905726#6 209235303#9 406645949#2 13008851#0 13008851#1 425899625#0 -573555402 573555404#0 573555404#1 573555404#2 573555404#3 573555404#4 573555404#5 573555404#6 573555404#7" busStop="119662884"/>
        <walk edges="389801985#4"/>
    </person>
    <person id="ped121" depart="3571.21">
        <walk edges="389801713#0 389801985#8 389801985#7 389801985#6 389801985#5 389801985#4" busStop="119662884"/>
        <walk edges="573555404#8" busStop="763083375"/>
        <walk edges="34248410#1 62333277 249888431#0 249888431#1 7996708#0 7996708#1 7996708#3 210406820 7996710#0 7996710#1 7996710#2"/>
    </person>
</routes>
