<?xml version="1.0" encoding="UTF-8"?>

<!-- generated on 08/29/20 15:26:19 by SUMO netconvert Version 0.32.0
<?xml version="1.0" encoding="UTF-8"?>

<configuration xmlns:xsi="http://www.w3.org/2001/XMLSchema-instance" xsi:noNamespaceSchemaLocation="http://sumo.dlr.de/xsd/netconvertConfiguration.xsd">

    <input>
        <type-files value="C:\Program%20Files%20(x86)\DLR\Sumo\data\typemap\osmNetconvert.typ.xml,C:\Program%20Files%20(x86)\DLR\Sumo\data\typemap\osmNetconvertUrbanDe.typ.xml,C:\Program%20Files%20(x86)\DLR\Sumo\data\typemap\osmNetconvertPedestrians.typ.xml,C:\Program%20Files%20(x86)\DLR\Sumo\data\typemap\osmNetconvertBicycle.typ.xml"/>
        <osm-files value="osm_bbox.osm.xml"/>
    </input>

    <output>
        <output-file value="C:\Users\JTech%20Global\Sumo\2020-08-29-15-26-12\osm.net.xml"/>
        <output.street-names value="true"/>
        <output.original-names value="true"/>
        <ptstop-output value="osm_stops.add.xml"/>
        <ptline-output value="osm_ptlines.xml"/>
    </output>

    <projection>
        <proj.utm value="true"/>
    </projection>

    <tls_building>
        <tls.discard-simple value="true"/>
        <tls.join value="true"/>
        <tls.guess-signals value="true"/>
        <tls.default-type value="actuated"/>
    </tls_building>

    <ramp_guessing>
        <ramps.guess value="true"/>
    </ramp_guessing>

    <processing>
        <geometry.remove value="true"/>
        <roundabouts.guess value="true"/>
        <junctions.join value="true"/>
        <junctions.corner-detail value="5"/>
        <crossings.guess value="true"/>
    </processing>

    <report>
        <verbose value="true"/>
    </report>

</configuration>
-->

<net version="0.27" junctionCornerDetail="5" walkingareas="true" xmlns:xsi="http://www.w3.org/2001/XMLSchema-instance" xsi:noNamespaceSchemaLocation="http://sumo.dlr.de/xsd/net_file.xsd">

    <location netOffset="-467623.62,-5549902.20" convBoundary="0.00,0.00,1157.43,542.61" origBoundary="8.547270,50.100545,8.563475,50.105389" projParameter="+proj=utm +zone=32 +ellps=WGS84 +datum=WGS84 +units=m +no_defs"/>

    <type id="cycleway.lane" allow="bicycle" bikeLaneWidth="1.00"/>
    <type id="cycleway.lane|highway.secondary" priority="7" numLanes="2" speed="13.90" disallow="tram rail_urban rail rail_electric pedestrian ship" oneway="0" sidewalkWidth="3.00" bikeLaneWidth="1.00"/>
    <type id="cycleway.opposite_lane" allow="bicycle" bikeLaneWidth="1.00"/>
    <type id="cycleway.opposite_lane|highway.secondary" priority="7" numLanes="2" speed="13.90" disallow="tram rail_urban rail rail_electric pedestrian ship" oneway="0" sidewalkWidth="3.00" bikeLaneWidth="1.00"/>
    <type id="cycleway.opposite_track" allow="bicycle" bikeLaneWidth="1.50"/>
    <type id="cycleway.track" allow="bicycle" bikeLaneWidth="1.50"/>
    <type id="cycleway.track|highway.secondary" priority="7" numLanes="2" speed="13.90" disallow="tram rail_urban rail rail_electric pedestrian ship" oneway="0" sidewalkWidth="3.00" bikeLaneWidth="1.50"/>
    <type id="cycleway.track|highway.secondary_link" priority="6" numLanes="1" speed="13.90" disallow="tram rail_urban rail rail_electric pedestrian ship" oneway="0" sidewalkWidth="3.00" bikeLaneWidth="1.50"/>
    <type id="highway.bridleway" priority="1" numLanes="1" speed="2.78" allow="pedestrian" oneway="1" width="2.00"/>
    <type id="highway.bus_guideway" priority="1" numLanes="1" speed="8.33" allow="bus" oneway="1"/>
    <type id="highway.cycleway" priority="1" numLanes="1" speed="5.56" allow="bicycle" oneway="0" width="1.00"/>
    <type id="highway.footway" priority="1" numLanes="1" speed="2.78" allow="pedestrian" oneway="1" width="2.00"/>
    <type id="highway.ford" priority="1" numLanes="1" speed="2.78" allow="army" oneway="0"/>
    <type id="highway.living_street" priority="3" numLanes="1" speed="2.78" disallow="tram rail_urban rail rail_electric ship" oneway="0"/>
    <type id="highway.motorway" priority="13" numLanes="2" speed="27.78" allow="private emergency authority army vip passenger hov taxi bus coach delivery truck trailer motorcycle evehicle custom1 custom2" oneway="1"/>
    <type id="highway.motorway_link" priority="12" numLanes="1" speed="16.67" allow="private emergency authority army vip passenger hov taxi bus coach delivery truck trailer motorcycle evehicle custom1 custom2" oneway="1"/>
    <type id="highway.path" priority="1" numLanes="1" speed="2.78" allow="bicycle pedestrian" oneway="1" width="2.00"/>
    <type id="highway.pedestrian" priority="1" numLanes="1" speed="2.78" allow="pedestrian" oneway="1" width="2.00"/>
    <type id="highway.primary" priority="9" numLanes="2" speed="13.89" disallow="tram rail_urban rail rail_electric pedestrian ship" oneway="0" sidewalkWidth="3.00"/>
    <type id="highway.primary_link" priority="8" numLanes="1" speed="13.89" disallow="tram rail_urban rail rail_electric pedestrian ship" oneway="0" sidewalkWidth="3.00"/>
    <type id="highway.raceway" priority="14" numLanes="2" speed="83.33" allow="vip" oneway="0"/>
    <type id="highway.residential" priority="4" numLanes="1" speed="13.89" disallow="tram rail_urban rail rail_electric pedestrian ship" oneway="0" sidewalkWidth="2.00"/>
    <type id="highway.secondary" priority="7" numLanes="2" speed="13.89" disallow="tram rail_urban rail rail_electric pedestrian ship" oneway="0" sidewalkWidth="3.00"/>
    <type id="highway.secondary_link" priority="6" numLanes="1" speed="13.89" disallow="tram rail_urban rail rail_electric pedestrian ship" oneway="0" sidewalkWidth="3.00"/>
    <type id="highway.service" priority="2" numLanes="1" speed="5.56" allow="delivery bicycle pedestrian" oneway="0"/>
    <type id="highway.services" priority="1" numLanes="1" speed="8.33" disallow="tram rail_urban rail rail_electric ship" oneway="0"/>
    <type id="highway.stairs" priority="1" numLanes="1" speed="1.39" allow="pedestrian" oneway="1" width="2.00"/>
    <type id="highway.step" priority="1" numLanes="1" speed="1.39" allow="pedestrian" oneway="1" width="2.00"/>
    <type id="highway.steps" priority="1" numLanes="1" speed="1.39" allow="pedestrian" oneway="1" width="2.00"/>
    <type id="highway.tertiary" priority="6" numLanes="1" speed="13.89" disallow="tram rail_urban rail rail_electric pedestrian ship" oneway="0" sidewalkWidth="3.00"/>
    <type id="highway.tertiary_link" priority="5" numLanes="1" speed="13.89" disallow="tram rail_urban rail rail_electric pedestrian ship" oneway="0" sidewalkWidth="2.00"/>
    <type id="highway.track" priority="1" numLanes="1" speed="5.56" disallow="tram rail_urban rail rail_electric ship" oneway="0"/>
    <type id="highway.trunk" priority="11" numLanes="2" speed="13.89" disallow="tram rail_urban rail rail_electric bicycle pedestrian ship" oneway="0"/>
    <type id="highway.trunk_link" priority="10" numLanes="1" speed="13.89" disallow="tram rail_urban rail rail_electric bicycle pedestrian ship" oneway="0"/>
    <type id="highway.unclassified" priority="5" numLanes="1" speed="13.89" disallow="tram rail_urban rail rail_electric pedestrian ship" oneway="0" sidewalkWidth="2.00"/>
    <type id="highway.unsurfaced" priority="1" numLanes="1" speed="8.33" disallow="tram rail_urban rail rail_electric ship" oneway="0"/>
    <type id="railway.light_rail" priority="15" numLanes="1" speed="27.78" allow="rail_urban" oneway="1"/>
    <type id="railway.preserved" priority="15" numLanes="1" speed="27.78" allow="rail" oneway="1"/>
    <type id="railway.rail" priority="15" numLanes="1" speed="83.33" allow="rail rail_electric" oneway="1"/>
    <type id="railway.subway" priority="15" numLanes="1" speed="27.78" allow="rail_urban" oneway="1"/>
    <type id="railway.tram" priority="15" numLanes="1" speed="13.89" allow="tram" oneway="1"/>

    <edge id=":1170929825_0" function="internal">
        <lane id=":1170929825_0_0" index="0" allow="bicycle" speed="13.89" length="2.13" width="1.50" shape="688.41,243.56 686.45,242.85"/>
        <lane id=":1170929825_0_1" index="1" disallow="tram rail_urban rail rail_electric bicycle pedestrian ship" speed="13.89" length="2.13" shape="687.23,241.41 685.15,240.77"/>
    </edge>
    <edge id=":1170929825_2" function="internal">
        <lane id=":1170929825_2_0" index="0" disallow="tram rail_urban rail rail_electric pedestrian ship" speed="13.89" length="3.50" shape="685.63,238.53 684.89,239.00 684.07,239.54 683.24,239.90 682.51,239.83"/>
    </edge>
    <edge id=":1170929825_c0" function="crossing" crossingEdges="406645949#0">
        <lane id=":1170929825_c0_0" index="0" allow="pedestrian" speed="1.00" length="4.80" width="4.00" shape="688.55,242.42 686.00,238.35"/>
    </edge>
    <edge id=":1170929825_w0" function="walkingarea">
        <lane id=":1170929825_w0_0" index="0" allow="pedestrian" speed="1.00" length="2.64" width="4.00" shape="690.24,241.36 686.90,243.57 688.50,246.11 690.28,246.93 688.82,244.30"/>
    </edge>
    <edge id=":1170929825_w1" function="walkingarea">
        <lane id=":1170929825_w1_0" index="0" allow="pedestrian" speed="1.00" length="6.35" width="4.00" shape="682.51,241.78 681.02,244.39 684.30,239.41 684.47,239.40 684.20,239.75 683.65,240.30 682.96,240.85 682.27,241.22"/>
    </edge>
    <edge id=":1170929828_0" function="internal">
        <lane id=":1170929828_0_0" index="0" disallow="tram rail_urban rail rail_electric pedestrian ship" speed="13.89" length="9.51" shape="151.43,289.30 148.90,288.06 147.25,287.06 145.66,285.94 143.31,284.38"/>
    </edge>
    <edge id=":1170929828_1" function="internal">
        <lane id=":1170929828_1_0" index="0" allow="delivery bicycle pedestrian" speed="9.72" length="8.14" shape="151.43,289.30 148.97,287.92 147.53,286.47 147.10,284.95 147.68,283.35"/>
    </edge>
    <edge id=":1170929828_2" function="internal">
        <lane id=":1170929828_2_0" index="0" disallow="tram rail_urban rail rail_electric pedestrian ship" speed="9.72" length="7.88" shape="150.43,285.18 149.33,286.11 147.78,286.29 145.77,285.71 143.31,284.38"/>
    </edge>
    <edge id=":1170929828_3" function="internal">
        <lane id=":1170929828_3_0" index="0" allow="delivery bicycle pedestrian" speed="5.56" length="4.82" shape="150.43,285.18 149.05,285.75 148.14,285.64 147.68,284.84 147.68,283.35"/>
    </edge>
    <edge id=":1170929828_c0" function="crossing" crossingEdges="323149841#1">
        <lane id=":1170929828_c0_0" index="0" allow="pedestrian" speed="1.00" length="3.20" width="4.00" shape="150.27,287.02 148.94,289.93"/>
    </edge>
    <edge id=":1170929828_w0" function="walkingarea">
        <lane id=":1170929828_w0_0" index="0" allow="pedestrian" speed="1.00" length="6.53" width="4.00" shape="142.40,285.81 140.79,288.34 149.07,293.40 150.31,290.66 150.76,290.76 148.90,289.87 147.56,289.14 146.49,288.47 145.45,287.74 144.19,286.86"/>
    </edge>
    <edge id=":1170929828_w1" function="walkingarea">
        <lane id=":1170929828_w1_0" index="0" allow="pedestrian" speed="1.00" length="3.21" width="4.00" shape="152.09,287.85 151.76,286.07 149.09,284.30 149.01,284.24 146.35,282.47 145.82,284.11 147.02,284.95 148.01,285.65 149.03,286.30 150.31,287.00"/>
    </edge>
    <edge id=":119662884_0" function="internal">
        <lane id=":119662884_0_0" index="0" allow="tram" speed="13.89" length="2.59" shape="385.37,289.98 383.10,288.73"/>
    </edge>
    <edge id=":119662884_1" function="internal">
        <lane id=":119662884_1_0" index="0" allow="delivery bicycle pedestrian" speed="5.56" length="2.59" shape="385.37,289.98 383.10,288.73"/>
    </edge>
    <edge id=":119662884_w0" function="walkingarea">
        <lane id=":119662884_w0_0" index="0" allow="pedestrian" speed="1.00" length="2.59" width="3.20" shape="383.90,287.34 382.31,290.12 384.63,291.40 386.12,288.57"/>
    </edge>
    <edge id=":1199221123_0" function="internal">
        <lane id=":1199221123_0_0" index="0" disallow="tram rail_urban rail rail_electric pedestrian ship" speed="13.89" length="7.53" shape="324.78,290.99 324.53,288.67 324.48,287.08 324.57,285.48 324.76,283.15"/>
        <lane id=":1199221123_0_1" index="1" disallow="tram rail_urban rail rail_electric pedestrian ship" speed="13.89" length="7.53" shape="328.06,290.58 327.83,288.46 327.78,287.00 327.87,285.53 328.05,283.40"/>
    </edge>
    <edge id=":1199221123_c0" function="crossing" crossingEdges="62225057#0">
        <lane id=":1199221123_c0_0" index="0" allow="pedestrian" speed="1.00" length="6.50" width="4.00" shape="329.40,288.39 322.95,289.20"/>
    </edge>
    <edge id=":1199221123_w0" function="walkingarea">
        <lane id=":1199221123_w0_0" index="0" allow="pedestrian" speed="1.00" length="5.52" width="4.00" shape="323.06,283.02 320.07,282.80 325.98,286.86 326.03,288.86 320.12,291.57 323.10,291.20 323.00,289.46 322.89,288.18 322.87,287.12 322.92,286.05 323.02,284.77"/>
    </edge>
    <edge id=":1199221123_w1" function="walkingarea">
        <lane id=":1199221123_w1_0" index="0" allow="pedestrian" speed="1.00" length="1.26" width="4.00" shape="329.65,290.38 330.56,288.89 330.54,286.89 329.52,284.98 329.43,286.06 329.39,286.96 329.40,287.85 329.48,288.93"/>
    </edge>
    <edge id=":1199284248_0" function="internal">
        <lane id=":1199284248_0_0" index="0" allow="tram" speed="13.89" length="1.43" shape="406.21,299.52 405.79,299.44 405.50,299.38 405.23,299.29 404.83,299.15"/>
    </edge>
    <edge id=":1199284248_1" function="internal">
        <lane id=":1199284248_1_0" index="0" allow="delivery bicycle pedestrian" speed="5.56" length="1.43" shape="406.21,299.52 405.79,299.44 405.50,299.38 405.23,299.29 404.83,299.15"/>
    </edge>
    <edge id=":1199284248_w0" function="walkingarea">
        <lane id=":1199284248_w0_0" index="0" allow="pedestrian" speed="1.00" length="1.43" width="3.20" shape="405.38,297.65 404.27,300.65 405.93,301.10 406.48,297.94 405.57,301.03 405.30,300.98 405.09,300.93 404.87,300.86 404.62,300.77"/>
    </edge>
    <edge id=":1211026294_0" function="internal">
        <lane id=":1211026294_0_0" index="0" allow="bicycle" speed="13.89" length="4.04" width="1.50" shape="669.44,221.27 673.37,221.07"/>
        <lane id=":1211026294_0_1" index="1" disallow="tram rail_urban rail rail_electric bicycle pedestrian ship" speed="13.89" length="4.04" shape="669.48,223.72 673.62,223.51"/>
    </edge>
    <edge id=":1211026294_c0" function="crossing" crossingEdges="13008849#2">
        <lane id=":1211026294_c0_0" index="0" allow="pedestrian" speed="1.00" length="4.80" width="4.00" shape="671.31,220.52 671.79,225.30"/>
    </edge>
    <edge id=":1211026294_w0" function="walkingarea">
        <lane id=":1211026294_w0_0" index="0" allow="pedestrian" speed="1.00" length="0.30" width="4.00" shape="671.02,225.54 673.02,225.46 673.78,225.10 669.80,225.50"/>
    </edge>
    <edge id=":1211026294_w1" function="walkingarea">
        <lane id=":1211026294_w1_0" index="0" allow="pedestrian" speed="1.00" length="2.81" width="4.00" shape="669.32,220.73 673.30,220.32 673.29,220.22 672.98,217.24 672.79,221.57 670.79,221.72 669.37,217.42 669.42,220.42"/>
    </edge>
    <edge id=":1750910657_0" function="internal">
        <lane id=":1750910657_0_0" index="0" disallow="tram rail_urban rail rail_electric pedestrian ship" speed="9.72" length="7.98" shape="377.40,189.15 376.35,188.08 376.03,186.51 376.43,184.45 377.56,181.90"/>
    </edge>
    <edge id=":1750910657_1" function="internal">
        <lane id=":1750910657_1_0" index="0" allow="delivery bicycle pedestrian" speed="5.56" length="4.82" shape="377.40,189.15 376.75,187.81 376.81,186.89 377.59,186.39 379.07,186.31"/>
    </edge>
    <edge id=":1750910657_2" function="internal">
        <lane id=":1750910657_2_0" index="0" disallow="tram rail_urban rail rail_electric pedestrian ship" speed="13.89" length="9.59" shape="370.24,188.92 374.64,180.36"/>
        <lane id=":1750910657_2_1" index="1" disallow="tram rail_urban rail rail_electric pedestrian ship" speed="13.89" length="9.59" shape="373.19,190.39 377.56,181.90"/>
    </edge>
    <edge id=":1750910657_4" function="internal">
        <lane id=":1750910657_4_0" index="0" allow="delivery bicycle pedestrian" speed="9.72" length="8.05" shape="373.19,190.39 374.65,187.95 376.12,186.45 377.59,185.91 379.07,186.31"/>
    </edge>
    <edge id=":1750910657_c0" function="crossing" crossingEdges="4812029#0">
        <lane id=":1750910657_c0_0" index="0" allow="pedestrian" speed="1.00" length="6.50" width="4.00" shape="372.29,181.37 378.03,184.42"/>
    </edge>
    <edge id=":1750910657_w0" function="walkingarea">
        <lane id=":1750910657_w0_0" index="0" allow="pedestrian" speed="1.00" length="3.41" width="4.00" shape="376.58,190.53 378.21,187.77 378.26,187.69 379.89,184.93 378.97,182.65 377.10,186.18"/>
    </edge>
    <edge id=":1750910657_w1" function="walkingarea">
        <lane id=":1750910657_w1_0" index="0" allow="pedestrian" speed="1.00" length="6.70" width="4.00" shape="371.35,183.14 373.14,179.56 370.49,178.15 366.03,186.82 368.72,188.16"/>
    </edge>
    <edge id=":1750910658_0" function="internal">
        <lane id=":1750910658_0_0" index="0" allow="delivery bicycle pedestrian" speed="5.56" length="9.73" shape="502.03,212.26 494.64,218.59"/>
    </edge>
    <edge id=":1750910658_1" function="internal">
        <lane id=":1750910658_1_0" index="0" allow="delivery bicycle pedestrian" speed="5.56" length="10.77" shape="502.03,212.26 500.06,213.26 497.69,213.53 494.93,213.06 491.77,211.87"/>
    </edge>
    <edge id=":1750910658_2" function="internal">
        <lane id=":1750910658_2_0" index="0" allow="delivery bicycle pedestrian" speed="5.56" length="4.82" shape="502.03,212.26 500.54,212.36 499.71,211.96 499.54,211.05 500.01,209.64"/>
    </edge>
    <edge id=":1750910658_3" function="internal">
        <lane id=":1750910658_3_0" index="0" allow="delivery bicycle pedestrian" speed="5.56" length="7.19" shape="493.15,208.88 495.42,209.78 497.32,210.21 498.85,210.16 500.01,209.64"/>
    </edge>
    <edge id=":1750910658_4" function="internal">
        <lane id=":1750910658_4_0" index="0" allow="delivery bicycle pedestrian" speed="5.56" length="12.67" shape="493.15,208.88 496.27,210.89 497.56,213.18 497.01,215.74 494.64,218.59"/>
    </edge>
    <edge id=":1750910658_5" function="internal">
        <lane id=":1750910658_5_0" index="0" allow="delivery bicycle pedestrian" speed="5.56" length="4.82" shape="493.15,208.88 493.93,210.15 493.96,211.07 493.24,211.64 491.77,211.87"/>
    </edge>
    <edge id=":1750910658_6" function="internal">
        <lane id=":1750910658_6_0" index="0" allow="delivery bicycle pedestrian" speed="5.56" length="6.52" shape="492.41,216.13 493.99,215.13 494.41,214.09 493.67,213.00 491.77,211.87"/>
    </edge>
    <edge id=":1750910658_7" function="internal">
        <lane id=":1750910658_7_0" index="0" allow="delivery bicycle pedestrian" speed="5.56" length="10.07" shape="492.41,216.13 494.97,214.67 496.44,213.26 497.80,211.65 500.01,209.64"/>
    </edge>
    <edge id=":1750910658_8" function="internal">
        <lane id=":1750910658_8_0" index="0" allow="delivery bicycle pedestrian" speed="5.56" length="4.84" shape="492.41,216.13 493.89,215.91 494.76,216.25 495.01,217.14 494.64,218.59"/>
    </edge>
    <edge id=":1750910658_w0" function="walkingarea">
        <lane id=":1750910658_w0_0" index="0" allow="pedestrian" speed="1.00" length="7.62" width="3.20" shape="503.00,213.52 501.05,210.99 500.99,210.91 499.04,208.38 493.83,207.43 492.48,210.33 492.44,210.42 491.09,213.32 491.76,214.67 493.07,217.59 493.56,217.40 495.71,219.77"/>
    </edge>
    <edge id=":1750910662_0" function="internal">
        <lane id=":1750910662_0_0" index="0" allow="bicycle" speed="13.89" length="8.46" width="1.50" shape="532.62,161.98 540.16,165.83"/>
        <lane id=":1750910662_0_1" index="1" disallow="tram rail_urban rail rail_electric pedestrian ship" speed="13.89" length="8.46" shape="531.51,164.16 539.04,168.01"/>
        <lane id=":1750910662_0_2" index="2" disallow="tram rail_urban rail rail_electric pedestrian ship" speed="13.89" length="8.46" shape="530.01,167.10 537.54,170.95"/>
    </edge>
    <edge id=":1750910662_3" function="internal">
        <lane id=":1750910662_3_0" index="0" allow="delivery bicycle pedestrian" speed="9.72" length="7.85" shape="530.01,167.10 532.41,168.55 533.93,169.97 534.56,171.39 534.30,172.78"/>
    </edge>
    <edge id=":1750910662_4" function="internal">
        <lane id=":1750910662_4_0" index="0" disallow="tram rail_urban rail rail_electric pedestrian ship" speed="9.72" length="9.52" shape="531.36,171.29 532.92,168.94 534.73,167.61 536.77,167.30 539.04,168.01"/>
    </edge>
    <edge id=":1750910662_5" function="internal">
        <lane id=":1750910662_5_0" index="0" disallow="tram rail_urban rail rail_electric pedestrian ship" speed="9.72" length="6.93" shape="531.36,171.29 532.27,170.23 533.61,169.81 535.36,170.05 537.54,170.95"/>
    </edge>
    <edge id=":1750910662_6" function="internal">
        <lane id=":1750910662_6_0" index="0" allow="delivery bicycle pedestrian" speed="5.56" length="4.82" shape="531.36,171.29 532.65,170.56 533.57,170.57 534.12,171.31 534.30,172.78"/>
    </edge>
    <edge id=":1750910662_c0" function="crossing" crossingEdges="34248409#1">
        <lane id=":1750910662_c0_0" index="0" allow="pedestrian" speed="1.00" length="8.10" width="4.00" shape="531.06,169.43 534.74,162.22"/>
    </edge>
    <edge id=":1750910662_w0" function="walkingarea">
        <lane id=":1750910662_w0_0" index="0" allow="pedestrian" speed="1.00" length="5.90" width="4.00" shape="540.55,165.07 541.91,162.40 534.37,158.55 533.01,161.22 536.53,163.13"/>
    </edge>
    <edge id=":1750910662_w1" function="walkingarea">
        <lane id=":1750910662_w1_0" index="0" allow="pedestrian" speed="1.00" length="3.28" width="4.00" shape="532.84,170.34 529.28,168.53 529.93,170.57 532.78,172.02 532.87,172.06 535.73,173.50"/>
    </edge>
    <edge id=":1868904945_0" function="internal">
        <lane id=":1868904945_0_0" index="0" allow="delivery bicycle pedestrian" speed="5.56" length="4.82" shape="685.55,324.55 686.38,323.32 687.20,322.91 688.03,323.32 688.85,324.56"/>
    </edge>
    <edge id=":1868904958_0" function="internal">
        <lane id=":1868904958_0_0" index="0" allow="delivery bicycle pedestrian" speed="5.56" length="4.82" shape="850.05,358.39 851.22,359.31 851.56,360.16 851.09,360.95 849.79,361.68"/>
    </edge>
    <edge id=":205274798_0" function="internal">
        <lane id=":205274798_0_0" index="0" allow="tram" speed="13.89" length="15.05" shape="672.50,242.85 660.75,252.25"/>
    </edge>
    <edge id=":205274798_1" function="internal">
        <lane id=":205274798_1_0" index="0" allow="bicycle" speed="13.89" length="8.40" width="1.50" shape="667.04,244.24 667.28,246.79 667.45,248.55 667.40,250.30 667.00,252.81"/>
        <lane id=":205274798_1_1" index="1" disallow="tram rail_urban rail rail_electric bicycle pedestrian ship" speed="13.89" length="8.40" shape="664.60,244.42 664.82,246.84 664.98,248.51 664.94,250.16 664.55,252.54"/>
    </edge>
    <edge id=":205274798_c0" function="crossing" crossingEdges="50126816#2">
        <lane id=":205274798_c0_0" index="0" allow="pedestrian" speed="1.00" length="3.20" width="4.00" shape="669.94,242.80 671.89,245.34"/>
    </edge>
    <edge id=":205274798_w0" function="walkingarea">
        <lane id=":205274798_w0_0" index="0" allow="pedestrian" speed="1.00" length="1.40" width="4.00" shape="671.53,241.58 670.88,243.97 667.89,244.18 668.04,244.39 668.62,244.09 669.39,243.49 670.23,242.75 670.98,242.06"/>
    </edge>
    <edge id=":205274798_w1" function="walkingarea">
        <lane id=":205274798_w1_0" index="0" allow="pedestrian" speed="1.00" length="8.13" width="4.00" shape="667.87,252.77 670.81,253.36 673.48,244.13 671.67,245.53 670.36,246.69 669.42,247.80 668.75,249.08 668.23,250.73"/>
    </edge>
    <edge id=":205274810_0" function="internal">
        <lane id=":205274810_0_0" index="0" allow="tram" speed="13.89" length="2.83" shape="420.09,300.37 417.26,300.43"/>
    </edge>
    <edge id=":205274810_1" function="internal">
        <lane id=":205274810_1_0" index="0" allow="delivery bicycle pedestrian" speed="5.56" length="2.83" shape="420.09,300.37 417.26,300.43"/>
    </edge>
    <edge id=":205274810_w0" function="walkingarea">
        <lane id=":205274810_w0_0" index="0" allow="pedestrian" speed="1.00" length="2.83" width="3.20" shape="417.28,298.83 417.25,302.03 420.17,301.97 420.01,298.77"/>
    </edge>
    <edge id=":2107773426_0" function="internal">
        <lane id=":2107773426_0_0" index="0" allow="delivery bicycle pedestrian" speed="5.56" length="7.89" shape="534.32,375.45 533.03,375.65 531.61,376.51 530.07,378.04 528.40,380.23"/>
    </edge>
    <edge id=":2107773426_1" function="internal">
        <lane id=":2107773426_1_0" index="0" allow="delivery bicycle pedestrian" speed="5.56" length="10.51" shape="534.32,375.45 523.84,374.51"/>
    </edge>
    <edge id=":2107773426_2" function="internal">
        <lane id=":2107773426_2_0" index="0" allow="delivery bicycle pedestrian" speed="5.56" length="4.82" shape="534.32,375.45 533.18,374.49 532.86,373.63 533.36,372.85 534.68,372.17"/>
    </edge>
    <edge id=":2107773426_3" function="internal">
        <lane id=":2107773426_3_0" index="0" allow="delivery bicycle pedestrian" speed="5.56" length="10.61" shape="524.11,371.22 534.68,372.17"/>
    </edge>
    <edge id=":2107773426_4" function="internal">
        <lane id=":2107773426_4_0" index="0" allow="delivery bicycle pedestrian" speed="5.56" length="13.61" shape="524.11,371.22 528.10,372.08 530.15,373.87 530.25,376.59 528.40,380.23"/>
    </edge>
    <edge id=":2107773426_5" function="internal">
        <lane id=":2107773426_5_0" index="0" allow="delivery bicycle pedestrian" speed="5.56" length="4.82" shape="524.11,371.22 525.28,372.14 525.62,372.99 525.14,373.78 523.84,374.51"/>
    </edge>
    <edge id=":2107773426_6" function="internal">
        <lane id=":2107773426_6_0" index="0" allow="delivery bicycle pedestrian" speed="5.56" length="5.82" shape="525.68,378.36 526.47,376.80 526.43,375.64 525.55,374.88 523.84,374.51"/>
    </edge>
    <edge id=":2107773426_7" function="internal">
        <lane id=":2107773426_7_0" index="0" allow="delivery bicycle pedestrian" speed="5.56" length="11.42" shape="525.68,378.36 527.96,375.47 530.23,373.47 532.46,372.37 534.68,372.17"/>
    </edge>
    <edge id=":2107773426_8" function="internal">
        <lane id=":2107773426_8_0" index="0" allow="delivery bicycle pedestrian" speed="5.56" length="4.82" shape="525.68,378.36 527.06,377.81 527.97,377.94 528.42,378.75 528.40,380.23"/>
    </edge>
    <edge id=":2107773426_w0" function="walkingarea">
        <lane id=":2107773426_w0_0" index="0" allow="pedestrian" speed="1.00" length="7.99" width="3.20" shape="534.14,377.04 534.49,373.86 534.50,373.76 534.86,370.58 524.24,369.62 523.98,372.81 523.97,372.91 523.72,376.10 524.36,377.46 527.00,379.27 527.08,379.33 529.72,381.14 533.60,377.11 532.99,377.42 532.29,377.98 531.51,378.79 530.66,379.84"/>
    </edge>
    <edge id=":2107773429_0" function="internal">
        <lane id=":2107773429_0_0" index="0" allow="delivery bicycle pedestrian" speed="5.56" length="4.82" shape="549.74,379.31 550.30,380.68 550.18,381.60 549.38,382.05 547.89,382.04"/>
    </edge>
    <edge id=":2107773591_0" function="internal">
        <lane id=":2107773591_0_0" index="0" allow="delivery bicycle pedestrian" speed="5.56" length="9.24" shape="468.33,440.16 466.10,438.79 465.02,437.10 465.09,435.10 466.31,432.78"/>
    </edge>
    <edge id=":2107773591_1" function="internal">
        <lane id=":2107773591_1_0" index="0" allow="delivery bicycle pedestrian" speed="5.56" length="2.73" shape="468.33,440.16 467.53,438.91 467.47,437.99 467.72,437.78"/>
    </edge>
    <edge id=":2107773591_4" function="internal">
        <lane id=":2107773591_4_0" index="0" speed="5.56" length="2.09" shape="467.72,437.78 468.18,437.40 469.64,437.13"/>
    </edge>
    <edge id=":2107773591_2" function="internal">
        <lane id=":2107773591_2_0" index="0" allow="delivery bicycle pedestrian" speed="5.56" length="3.02" shape="468.98,434.72 468.58,435.48 468.56,436.13 468.91,436.68 469.64,437.13"/>
    </edge>
    <edge id=":2107773591_3" function="internal">
        <lane id=":2107773591_3_0" index="0" allow="delivery bicycle pedestrian" speed="5.56" length="2.20" shape="468.98,434.72 467.59,435.24 466.89,435.12"/>
    </edge>
    <edge id=":2107773591_5" function="internal">
        <lane id=":2107773591_5_0" index="0" speed="5.56" length="2.62" shape="466.89,435.12 466.68,435.09 466.25,434.27 466.31,432.78"/>
    </edge>
    <edge id=":2107773591_w0" function="walkingarea">
        <lane id=":2107773591_w0_0" index="0" allow="pedestrian" speed="1.00" length="4.62" width="3.20" shape="467.70,441.63 468.97,438.69 469.01,438.60 470.28,435.66 470.28,435.66 467.69,433.78 467.61,433.72 465.02,431.84 465.56,440.46 464.09,439.11 463.31,437.57 463.20,435.85 463.77,433.94"/>
    </edge>
    <edge id=":2158157410_0" function="internal">
        <lane id=":2158157410_0_0" index="0" allow="bicycle" speed="13.89" length="8.50" width="1.50" shape="540.34,165.92 547.91,169.79"/>
        <lane id=":2158157410_0_1" index="1" disallow="tram rail_urban rail rail_electric pedestrian ship" speed="13.89" length="8.50" shape="539.22,168.10 546.79,171.98"/>
        <lane id=":2158157410_0_2" index="2" disallow="tram rail_urban rail rail_electric pedestrian ship" speed="13.89" length="8.50" shape="537.72,171.04 545.29,174.91"/>
    </edge>
    <edge id=":2158157410_3" function="internal">
        <lane id=":2158157410_3_0" index="0" allow="delivery bicycle pedestrian" speed="9.72" length="6.88" shape="537.72,171.04 539.68,172.25 540.93,173.51 541.48,174.82 541.33,176.19"/>
    </edge>
    <edge id=":2158157410_4" function="internal">