<?xml version="1.0" encoding="UTF-8"?>

<!-- generated on 08/29/20 15:26:30 by SUMO duarouter Version 0.32.0
<?xml version="1.0" encoding="UTF-8"?>

<configuration xmlns:xsi="http://www.w3.org/2001/XMLSchema-instance" xsi:noNamespaceSchemaLocation="http://sumo.dlr.de/xsd/duarouterConfiguration.xsd">

    <input>
        <net-file value="osm.net.xml"/>
        <route-files value="osm.motorcycle.trips.xml"/>
    </input>

    <output>
        <output-file value="osm.motorcycle.rou.xml"/>
        <alternatives-output value="osm.motorcycle.rou.alt.xml"/>
    </output>

    <processing>
        <ignore-errors value="true"/>
    </processing>

    <time>
        <begin value="0"/>
        <end value="3600.0"/>
    </time>

    <report>
        <no-warnings value="true"/>
        <no-step-log value="true"/>
    </report>

</configuration>
-->

<routes xmlns:xsi="http://www.w3.org/2001/XMLSchema-instance" xsi:noNamespaceSchemaLocation="http://sumo.dlr.de/xsd/routes_file.xsd">
    <vType id="motorcycle" speedFactor="normc(1.00,0.10,0.20,2.00)" vClass="motorcycle"/>
    <vehicle id="moto0" type="motorcycle" depart="0.00" departLane="best">
        <route edges="425899625#0 425899625#1 34248411 425899624 249888431#0 249888431#1 406645953#0 406645953#1 406645953#2 406645953#3 406645953#4 4812029#0 4812029#1 4812029#2 34248409#0 34248409#1 34248409#2 34248409#3 8098931#0 8098931#1 -209235277#1"/>
    </vehicle>
    <vehicle id="moto1" type="motorcycle" depart="132.88" departLane="best">
        <route edges="210406807 211479827 62225057#0 62225057#1 406645953#0 406645953#1 406645953#2 406645953#3 406645953#4 4812029#0 4812029#1 4812029#2 34248409#0 34248409#1 34248409#2 34248409#3 406645948 13008859#0 13008859#1 13008859#2"/>
    </vehicle>
    <vehicle id="moto2" type="motorcycle" depart="265.77" departLane="best">
        <route edges="5924283#0"/>
    </vehicle>
    <vehicle id="moto4" type="motorcycle" depart="531.54" departLane="best">
        <route edges="34248409#2 34248409#3 8098931#0 8098931#1 -209235277#1"/>
    </vehicle>
    <vehicle id="moto6" type="motorcycle" depart="797.30" departLane="best">
        <route edges="-4812819 62225057#0 62225057#1 406645953#0 406645953#1 406645953#2 406645953#3 406645953#4 4812029#0 4812029#1 4812029#2 34248409#0 34248409#1 34248409#2 34248409#3 406645948 13008859#0"/>
    </vehicle>
    <vehicle id="moto7" type="motorcycle" depart="930.19" departLane="best">
        <route edges="425899625#0 425899625#1 34248411 425899624 249888431#0 249888431#1 406645953#0 406645953#1"/>
    </vehicle>
    <vehicle id="moto8" type="motorcycle" depart="1063.07" departLane="best">
        <route edges="13008859#4 13008851#0 13008851#1 425899625#0 425899625#1 34248411 425899624"/>
    </vehicle>
    <vehicle id="moto12" type="motorcycle" depart="1594.61" departLane="best">
        <route edges="8098931#2 -8098931#2 -8098931#1 -8098931#0 406645948 13008859#0 13008859#1 13008859#2 13008859#3 13008859#4 13008851#0 13008851#1 425899625#0 425899625#1 34248411 425899624 249888431#0 249888431#1"/>
    </vehicle>
    <vehicle id="moto13" type="motorcycle" depart="1727.49" departLane="best">
        <route edges="-8098931#2 -8098931#1"/>
    </vehicle>
    <vehicle id="moto16" type="motorcycle" depart="2126.14" departLane="best">
        <route edges="406645949#2 13008851#0 13008851#1 425899625#0 425899625#1 34248411 425899624 249888431#0 249888431#1 406645953#0 406645953#1 406645953#2 8106512#0"/>
    </vehicle>
    <vehicle id="moto20" type="motorcycle" depart="2657.68" departLane="best">
        <route edges="4812819 -4812819 62225057#0 62225057#1 7996708#0 7996708#1 7996708#3 -210406820"/>
    </vehicle>
    <vehicle id="moto21" type="motorcycle" depart="2790.56" departLane="best">
        <route edges="13008859#4 13008851#0 13008851#1 425899625#0 425899625#1 34248411 210406807 211479827"/>
    </vehicle>
    <vehicle id="moto22" type="motorcycle" depart="2923.45" departLane="best">
        <route edges="-8098931#1 -8098931#0 406645948 13008859#0 13008859#1 13008859#2 13008859#3"/>
    </vehicle>
    <vehicle id="moto23" type="motorcycle" depart="3056.33" departLane="best">
        <route edges="-8098931#3 -8098931#2 -8098931#1 -8098931#0 406645948 13008859#0 13008859#1 13008859#2 13008859#3 13008859#4 13008851#0 13008851#1 425899625#0 425899625#1 34248411 425899624 249888431#0 249888431#1 7996708#0 7996708#1 7996708#3 -210406820 210406820"/>
    </vehicle>
    <vehicle id="moto24" type="motorcycle" depart="3189.21" departLane="best">
        <route edges="425899624 249888431#0 249888431#1 7996708#0 7996708#1 7996708#3 7996707#0 7996707#1 7996707#2 7996707#3 7996707#4 323149841#1 323149841#2 323149841#3"/>
    </vehicle>
    <vehicle id="moto25" type="motorcycle" depart="3322.10" departLane="best">
        <route edges="249888431#1 406645953#0 406645953#1 406645953#2 406645953#3 406645953#4 4812029#0 4812029#1 4812029#2 34248409#0 34248409#1 34248409#2 34248409#3 406645948 13008859#0 13008859#1"/>
    </vehicle>
    <vehicle id="moto26" type="motorcycle" depart="3454.98" departLane="best">
        <route edges="210406807 211479827 62225057#0 62225057#1 406645953#0 406645953#1 406645953#2 406645953#3 406645953#4 4812029#0 4812029#1 4812029#2 34248409#0 34248409#1 34248409#2 34248409#3 8098931#0 8098931#1 8098931#2"/>
    </vehicle>
    <vehicle id="moto27" type="motorcycle" depart="3587.87" departLane="best">
        <route edges="425899625#0"/>
    </vehicle>
</routes>
