<?xml version="1.0" encoding="UTF-8"?>
<!-- generated on 2020-08-29 15:26:31.696509 by $Id$ via randomTrips.py
  options: 
-->
<routes xmlns:xsi="http://www.w3.org/2001/XMLSchema-instance" xsi:noNamespaceSchemaLocation="http://sumo.dlr.de/xsd/routes_file.xsd">
</routes>
