<?xml version="1.0" encoding="UTF-8"?>

<!-- generated on 08/29/20 15:26:30 by SUMO duarouter Version 0.32.0
<?xml version="1.0" encoding="UTF-8"?>

<configuration xmlns:xsi="http://www.w3.org/2001/XMLSchema-instance" xsi:noNamespaceSchemaLocation="http://sumo.dlr.de/xsd/duarouterConfiguration.xsd">

    <input>
        <net-file value="osm.net.xml"/>
        <route-files value="osm.bus.trips.xml"/>
    </input>

    <output>
        <output-file value="osm.bus.rou.xml"/>
        <alternatives-output value="osm.bus.rou.alt.xml"/>
    </output>

    <processing>
        <ignore-errors value="true"/>
    </processing>

    <time>
        <begin value="0"/>
        <end value="3600.0"/>
    </time>

    <report>
        <no-warnings value="true"/>
        <no-step-log value="true"/>
    </report>

</configuration>
-->

<routes xmlns:xsi="http://www.w3.org/2001/XMLSchema-instance" xsi:noNamespaceSchemaLocation="http://sumo.dlr.de/xsd/routes_file.xsd">
    <vType id="bus" vClass="bus"/>
    <vehicle id="bus2" type="bus" depart="265.77" departLane="best">
        <route edges="209235277#0 209235277#1 -8098931#1 -8098931#0 406645948 13008859#0 13008859#1 13008859#2 13008859#3 13008859#4 13008851#0 13008851#1 425899625#0 425899625#1 34248411 425899624 249888431#0 249888431#1 7996708#0 7996708#1 7996708#3 7996707#0 7996707#1 7996707#2 7996707#3 7996707#4 323149841#1 323149841#2 323149841#3"/>
    </vehicle>
    <vehicle id="bus8" type="bus" depart="1063.07" departLane="best">
        <route edges="13008859#1 13008859#2 13008859#3 13008859#4 13008851#0 13008851#1 425899625#0 425899625#1 34248411 425899624 249888431#0 249888431#1 7996708#0 7996708#1 7996708#3 7996707#0 7996707#1 7996707#2 7996707#3 7996707#4 323149841#1 323149841#2 323149841#3"/>
    </vehicle>
    <vehicle id="bus9" type="bus" depart="1195.96" departLane="best">
        <route edges="406645950 406645949#0 406645949#1 406645949#2 13008851#0 13008851#1 425899625#0 425899625#1 34248411 425899624 249888431#0 249888431#1 7996708#0 7996708#1 7996708#3 7996707#0 7996707#1 7996707#2 7996707#3 7996707#4 323149841#1 323149841#2 323149841#3"/>
    </vehicle>
    <vehicle id="bus10" type="bus" depart="1328.84" departLane="best">
        <route edges="13008859#2 13008859#3 13008859#4 13008851#0 13008851#1 425899625#0 425899625#1 34248411 425899624 249888431#0 249888431#1 7996708#0 7996708#1 7996708#3 7996707#0 7996707#1 7996707#2 7996707#3 7996707#4 323149841#1 323149841#2 323149841#3"/>
    </vehicle>
    <vehicle id="bus11" type="bus" depart="1461.72" departLane="best">
        <route edges="5924282 -5924283#1 -5924283#0 -4812819 62225057#0 62225057#1 406645953#0 406645953#1 406645953#2 406645953#3 406645953#4 4812029#0 4812029#1 4812029#2 34248409#0 34248409#1 34248409#2 34248409#3 406645948 13008849#0 13008849#2 13008849#3"/>
    </vehicle>
    <vehicle id="bus13" type="bus" depart="1727.49" departLane="best">
        <route edges="13008859#0 13008859#1 13008859#2 13008859#3 13008859#4 13008851#0 13008851#1 425899625#0 425899625#1 34248411 425899624 249888431#0 249888431#1 7996708#0 7996708#1 7996708#3 7996707#0 7996707#1 7996707#2 7996707#3 7996707#4 323149841#1 323149841#2 323149841#3"/>
    </vehicle>
    <vehicle id="bus14" type="bus" depart="1860.37" departLane="best">
        <route edges="13008851#0 13008851#1 425899625#0 425899625#1 34248411 425899624 249888431#0 249888431#1 7996708#0 7996708#1 7996708#3 7996707#0 7996707#1 7996707#2 7996707#3 7996707#4 323149841#1 323149841#2 323149841#3"/>
    </vehicle>
    <vehicle id="bus17" type="bus" depart="2259.03" departLane="best">
        <route edges="5924282 -5924283#1 -5924283#0 -4812819 62225057#0 62225057#1 406645953#0 406645953#1 406645953#2 406645953#3 406645953#4 4812029#0 4812029#1 4812029#2 34248409#0 34248409#1 34248409#2 34248409#3 406645948 13008849#0 13008849#2 13008849#3"/>
    </vehicle>
    <vehicle id="bus21" type="bus" depart="2790.56" departLane="best">
        <route edges="5924282 -5924283#1 -5924283#0 -4812819 62225057#0 62225057#1 406645953#0 406645953#1 406645953#2 406645953#3 406645953#4 4812029#0 4812029#1 4812029#2 34248409#0 34248409#1 34248409#2 34248409#3 406645948 13008849#0 13008849#2 13008849#3"/>
    </vehicle>
    <vehicle id="bus23" type="bus" depart="3056.33" departLane="best">
        <route edges="5924282 -5924283#1 -5924283#0 -4812819 62225057#0 62225057#1 406645953#0 406645953#1 406645953#2 406645953#3 406645953#4 4812029#0 4812029#1 4812029#2 34248409#0 34248409#1 34248409#2 34248409#3 406645948 13008849#0 13008849#2 13008849#3"/>
    </vehicle>
    <vehicle id="bus25" type="bus" depart="3322.10" departLane="best">
        <route edges="209235277#0 209235277#1 -8098931#1 -8098931#0 406645948 13008859#0 13008859#1 13008859#2 13008859#3 13008859#4 13008851#0 13008851#1 425899625#0 425899625#1 34248411 425899624 249888431#0 249888431#1 7996708#0 7996708#1 7996708#3 7996707#0 7996707#1 7996707#2 7996707#3 7996707#4 323149841#1 323149841#2 323149841#3"/>
    </vehicle>
    <vehicle id="bus26" type="bus" depart="3454.98" departLane="best">
        <route edges="209235277#0 209235277#1 -8098931#1 -8098931#0 406645948 13008859#0 13008859#1 13008859#2 13008859#3 13008859#4 13008851#0 13008851#1 425899625#0 425899625#1 34248411 425899624 249888431#0 249888431#1 7996708#0 7996708#1 7996708#3 7996707#0 7996707#1 7996707#2 7996707#3 7996707#4 323149841#1 323149841#2 323149841#3"/>
    </vehicle>
    <vehicle id="bus27" type="bus" depart="3587.87" departLane="best">
        <route edges="406645950 406645949#0 406645949#1 406645949#2 13008851#0 13008851#1 425899625#0 425899625#1 34248411 425899624 249888431#0 249888431#1 7996708#0 7996708#1 7996708#3 7996707#0 7996707#1 7996707#2 7996707#3 7996707#4 323149841#1 323149841#2 323149841#3"/>
    </vehicle>
</routes>
