<?xml version="1.0" encoding="UTF-8"?>

<!-- generated on 08/29/20 15:26:30 by SUMO duarouter Version 0.32.0
<?xml version="1.0" encoding="UTF-8"?>

<configuration xmlns:xsi="http://www.w3.org/2001/XMLSchema-instance" xsi:noNamespaceSchemaLocation="http://sumo.dlr.de/xsd/duarouterConfiguration.xsd">

    <input>
        <net-file value="osm.net.xml"/>
        <route-files value="osm.passenger.trips.xml"/>
    </input>

    <output>
        <output-file value="osm.passenger.rou.xml"/>
        <alternatives-output value="osm.passenger.rou.alt.xml"/>
    </output>

    <processing>
        <ignore-errors value="true"/>
    </processing>

    <time>
        <begin value="0"/>
        <end value="3600.0"/>
    </time>

    <report>
        <no-warnings value="true"/>
        <no-step-log value="true"/>
    </report>

</configuration>
-->

<routes xmlns:xsi="http://www.w3.org/2001/XMLSchema-instance" xsi:noNamespaceSchemaLocation="http://sumo.dlr.de/xsd/routes_file.xsd">
    <vType id="passenger" speedFactor="normc(1.00,0.10,0.20,2.00)" vClass="passenger"/>
    <vehicle id="veh0" type="passenger" depart="0.00" departLane="best">
        <route edges="406645953#3 406645953#4 4812029#0 4812029#1 4812029#2 34248409#0 34248409#1 34248409#2 34248409#3 8098931#0 8098931#1 -209235277#1 -209235277#0"/>
    </vehicle>
    <vehicle id="veh2" type="passenger" depart="88.59" departLane="best">
        <route edges="62225057#1 406645953#0 406645953#1 406645953#2 406645953#3 406645953#4 4812029#0 4812029#1 4812029#2 34248409#0 34248409#1 34248409#2 34248409#3 8098931#0 8098931#1 -209235277#1 -209235277#0"/>
    </vehicle>
    <vehicle id="veh4" type="passenger" depart="177.18" departLane="best">
        <route edges="-8098931#3 -8098931#2 -8098931#1 -8098931#0 406645948 13008859#0 13008859#1 13008859#2 13008859#3 13008859#4 13008851#0 13008851#1 425899625#0 425899625#1 34248411 210406807 211479827 4812819 5924283#0 5924283#1 -5924283#1"/>
    </vehicle>
    <vehicle id="veh5" type="passenger" depart="221.47" departLane="best">
        <route edges="406645949#1 406645949#2 13008851#0 13008851#1 425899625#0 425899625#1 34248411 425899624 249888431#0 249888431#1 406645953#0 406645953#1 406645953#2 8106512#0"/>
    </vehicle>
    <vehicle id="veh6" type="passenger" depart="265.77" departLane="best">
        <route edges="209235277#0 209235277#1 -8098931#1 -8098931#0 406645948 13008859#0 13008859#1 13008859#2 13008859#3 13008859#4 13008851#0 13008851#1 425899625#0 425899625#1 34248411 425899624 249888431#0 249888431#1 7996708#0 7996708#1 7996708#3 -210406820 210406820"/>
    </vehicle>
    <vehicle id="veh7" type="passenger" depart="310.06" departLane="best">
        <route edges="-8098931#3 -8098931#2 -8098931#1 -8098931#0 406645948 13008859#0 13008859#1 13008859#2 13008859#3 13008859#4 13008851#0 13008851#1 425899625#0 425899625#1 34248411 210406807"/>
    </vehicle>
    <vehicle id="veh8" type="passenger" depart="354.36" departLane="best">
        <route edges="406645953#3 406645953#4 4812029#0 4812029#1 4812029#2 34248409#0 34248409#1 34248409#2 34248409#3 406645948 13008859#0 13008859#1 13008859#2 13008859#3 13008859#4 13008851#0 13008851#1 425899625#0 425899625#1 34248411 425899624 249888431#0 249888431#1 7996708#0 7996708#1 7996708#3 7996707#0 7996707#1 7996707#2 7996707#3 7996707#4 323149841#1 323149841#2 323149841#3"/>
    </vehicle>
    <vehicle id="veh10" type="passenger" depart="442.95" departLane="best">
        <route edges="13008851#1 425899625#0 425899625#1 34248411 425899624 249888431#0 249888431#1 7996708#0 7996708#1 7996708#3 7996707#0"/>
    </vehicle>
    <vehicle id="veh11" type="passenger" depart="487.24" departLane="best">
        <route edges="13008851#1 425899625#0 425899625#1 34248411 425899624 249888431#0 249888431#1 7996708#0 7996708#1 7996708#3 7996707#0 7996707#1 7996707#2 7996707#3 7996707#4 323149841#1 323149841#2 323149841#3"/>
    </vehicle>
    <vehicle id="veh12" type="passenger" depart="531.54" departLane="best">
        <route edges="406645950 406645949#0 406645949#1 406645949#2 13008851#0 13008851#1 425899625#0 425899625#1 34248411 210406807 211479827 4812819 5924283#0 5924283#1 5924284"/>
    </vehicle>
    <vehicle id="veh13" type="passenger" depart="575.83" departLane="best">
        <route edges="211479827 62225057#0 62225057#1 406645953#0 406645953#1 406645953#2 406645953#3 406645953#4 4812029#0 4812029#1 4812029#2 34248409#0 34248409#1 34248409#2 34248409#3 8098931#0 8098931#1 -209235277#1 209235277#1"/>
    </vehicle>
    <vehicle id="veh14" type="passenger" depart="620.12" departLane="best">
        <route edges="425899624 249888431#0 249888431#1 7996708#0 7996708#1 7996708#3 7996707#0 7996707#1 7996707#2 7996707#3 7996707#4 323149841#1 323149841#2 323149841#3"/>
    </vehicle>
    <vehicle id="veh16" type="passenger" depart="708.71" departLane="best">
        <route edges="249888431#1 406645953#0 406645953#1 406645953#2 406645953#3 406645953#4 4812029#0 4812029#1 4812029#2 34248409#0 34248409#1 34248409#2 34248409#3 406645948 13008859#0"/>
    </vehicle>
    <vehicle id="veh18" type="passenger" depart="797.30" departLane="best">
        <route edges="-8098931#1 -8098931#0 406645948 13008859#0 13008859#1 13008859#2 13008859#3 13008859#4 13008851#0 13008851#1 425899625#0 425899625#1 34248411 425899624 249888431#0 249888431#1 7996708#0 7996708#1 7996708#3 7996707#0 7996707#1 7996707#2 7996707#3 7996707#4 323149841#1 323149841#2 323149841#3"/>
    </vehicle>
    <vehicle id="veh19" type="passenger" depart="841.60" departLane="best">
        <route edges="209235277#0 209235277#1 -8098931#1 -8098931#0 406645948 13008859#0 13008859#1 13008859#2 13008859#3 13008859#4 13008851#0 13008851#1 425899625#0 425899625#1 34248411 210406807 211479827 4812819 5924283#0"/>
    </vehicle>
    <vehicle id="veh21" type="passenger" depart="930.19" departLane="best">
        <route edges="406645953#0 406645953#1 406645953#2 406645953#3 406645953#4 4812029#0 4812029#1 4812029#2 34248409#0 34248409#1 34248409#2 34248409#3 406645948 13008849#0 13008849#2 13008849#3"/>
    </vehicle>
    <vehicle id="veh22" type="passenger" depart="974.48" departLane="best">
        <route edges="-209235277#1 209235277#1 -8098931#1 -8098931#0 406645948 13008859#0 13008859#1 13008859#2 13008859#3 13008859#4 13008851#0 13008851#1 425899625#0 425899625#1 34248411 425899624 249888431#0"/>
    </vehicle>
    <vehicle id="veh24" type="passenger" depart="1063.07" departLane="best">
        <route edges="211479827 62225057#0 62225057#1 406645953#0 406645953#1 406645953#2 406645953#3 406645953#4 4812029#0 4812029#1 4812029#2 34248409#0 34248409#1 34248409#2 34248409#3 8098931#0 8098931#1 -209235277#1"/>
    </vehicle>
    <vehicle id="veh26" type="passenger" depart="1151.66" departLane="best">
        <route edges="-8098931#1 -8098931#0 406645948 13008859#0 13008859#1 13008859#2 13008859#3 13008859#4 13008851#0 13008851#1 425899625#0 425899625#1 34248411 425899624 249888431#0 249888431#1 7996708#0 7996708#1 7996708#3 7996707#0 7996707#1 7996707#2 7996707#3"/>
    </vehicle>
    <vehicle id="veh27" type="passenger" depart="1195.96" departLane="best">
        <route edges="5924282 -5924283#1 -5924283#0 -4812819 62225057#0 62225057#1 406645953#0 406645953#1 406645953#2 406645953#3 406645953#4 4812029#0 4812029#1 4812029#2 34248409#0 34248409#1 34248409#2 34248409#3 406645948 13008849#0"/>
    </vehicle>
    <vehicle id="veh28" type="passenger" depart="1240.25" departLane="best">
        <route edges="209235277#0 209235277#1 -8098931#1 -8098931#0 406645948 13008859#0 13008859#1 13008859#2 13008859#3 13008859#4 13008851#0 13008851#1 425899625#0 425899625#1 34248411 425899624 249888431#0 249888431#1 406645953#0 406645953#1 406645953#2 8106512#0 8106512#1 8106512#2 7996710#3 7996710#4"/>
    </vehicle>
    <vehicle id="veh30" type="passenger" depart="1328.84" departLane="best">
        <route edges="406645949#1 406645949#2 13008851#0 13008851#1 425899625#0 425899625#1 34248411 425899624 249888431#0 249888431#1 7996708#0 7996708#1 7996708#3 7996707#0"/>
    </vehicle>
    <vehicle id="veh33" type="passenger" depart="1461.72" departLane="best">
        <route edges="-8098931#1 -8098931#0 406645948 13008859#0 13008859#1 13008859#2 13008859#3 13008859#4 13008851#0 13008851#1 425899625#0 425899625#1 34248411 210406807 211479827 4812819"/>
    </vehicle>
    <vehicle id="veh34" type="passenger" depart="1506.02" departLane="best">
        <route edges="209235277#0 209235277#1 -8098931#1 -8098931#0 406645948 13008859#0 13008859#1 13008859#2 13008859#3 13008859#4 13008851#0 13008851#1 425899625#0 425899625#1 34248411 210406807 211479827 4812819 5924283#0 5924283#1 5924284"/>
    </vehicle>
    <vehicle id="veh35" type="passenger" depart="1550.31" departLane="best">
        <route edges="62225057#1 406645953#0 406645953#1 406645953#2 406645953#3 406645953#4 4812029#0 4812029#1 4812029#2 34248409#0 34248409#1 34248409#2 34248409#3 406645948 13008849#0 13008849#2 13008849#3"/>
    </vehicle>
    <vehicle id="veh39" type="passenger" depart="1727.49" departLane="best">
        <route edges="209235277#0 209235277#1 -8098931#1 -8098931#0 406645948 13008859#0 13008859#1 13008859#2 13008859#3 13008859#4 13008851#0 13008851#1 425899625#0 425899625#1 34248411 425899624 249888431#0 249888431#1 7996708#0"/>
    </vehicle>
    <vehicle id="veh40" type="passenger" depart="1771.79" departLane="best">
        <route edges="8098931#1 -8098931#1 -8098931#0 406645948 13008859#0 13008859#1 13008859#2 13008859#3 13008859#4 13008851#0 13008851#1 425899625#0 425899625#1 34248411 425899624 249888431#0 249888431#1 406645953#0 406645953#1 406645953#2 8106512#0 8106512#1 8106512#2"/>
    </vehicle>
    <vehicle id="veh41" type="passenger" depart="1816.08" departLane="best">
        <route edges="406645950 406645949#0 406645949#1 406645949#2 13008851#0 13008851#1 425899625#0 425899625#1 34248411 210406807 211479827 62225057#0"/>
    </vehicle>
    <vehicle id="veh42" type="passenger" depart="1860.37" departLane="best">
        <route edges="13008851#0 13008851#1 425899625#0 425899625#1 34248411 210406807 211479827"/>
    </vehicle>
    <vehicle id="veh43" type="passenger" depart="1904.67" departLane="best">
        <route edges="406645949#2 13008851#0 13008851#1 425899625#0 425899625#1 34248411 425899624 249888431#0 249888431#1 7996708#0 7996708#1 7996708#3 7996707#0 7996707#1 7996707#2"/>
    </vehicle>
    <vehicle id="veh45" type="passenger" depart="1993.26" departLane="best">
        <route edges="406645950 406645949#0 406645949#1 406645949#2 13008851#0 13008851#1 425899625#0 425899625#1 34248411 210406807 211479827 4812819 5924283#0 5924283#1 5924284"/>
    </vehicle>
    <vehicle id="veh47" type="passenger" depart="2081.85" departLane="best">
        <route edges="406645950 406645949#0 406645949#1 406645949#2 13008851#0 13008851#1 425899625#0 425899625#1 34248411 425899624 249888431#0 249888431#1 406645953#0 406645953#1 406645953#2 406645953#3 406645953#4 4812029#0 4812029#1"/>
    </vehicle>
    <vehicle id="veh49" type="passenger" depart="2170.44" departLane="best">
        <route edges="13008859#3 13008859#4 13008851#0 13008851#1 425899625#0 425899625#1 34248411 210406807 211479827 62225057#0"/>
    </vehicle>
    <vehicle id="veh50" type="passenger" depart="2214.73" departLane="best">
        <route edges="209235277#0 209235277#1 -8098931#1 -8098931#0 406645948 13008859#0 13008859#1 13008859#2 13008859#3 13008859#4 13008851#0 13008851#1 425899625#0 425899625#1 34248411 425899624 249888431#0 249888431#1 7996708#0 7996708#1 7996708#3 7996707#0 7996707#1 7996707#2 7996707#3 7996707#4 323149841#1 323149841#2 323149841#3"/>
    </vehicle>
    <vehicle id="veh53" type="passenger" depart="2347.62" departLane="best">
        <route edges="425899624 249888431#0 249888431#1 406645953#0 406645953#1 406645953#2 406645953#3 406645953#4 4812029#0 4812029#1 4812029#2 34248409#0 34248409#1 34248409#2 34248409#3 8098931#0 8098931#1 -209235277#1 -209235277#0"/>
    </vehicle>
    <vehicle id="veh54" type="passenger" depart="2391.91" departLane="best">
        <route edges="-209235277#1 209235277#1 -8098931#1 -8098931#0 406645948 13008859#0 13008859#1 13008859#2 13008859#3 13008859#4 13008851#0 13008851#1 425899625#0 425899625#1 34248411 425899624 249888431#0 249888431#1 7996708#0 7996708#1 7996708#3 7996707#0 7996707#1 7996707#2 7996707#3 7996707#4"/>
    </vehicle>
    <vehicle id="veh55" type="passenger" depart="2436.20" departLane="best">
        <route edges="406645953#3 406645953#4 4812029#0 4812029#1 4812029#2 34248409#0 34248409#1 34248409#2 34248409#3 406645948 13008859#0 13008859#1 13008859#2 13008859#3 13008859#4"/>
    </vehicle>
    <vehicle id="veh56" type="passenger" depart="2480.50" departLane="best">
        <route edges="5924282 -5924283#1 -5924283#0 -4812819 62225057#0 62225057#1 406645953#0 406645953#1 406645953#2"/>
    </vehicle>
    <vehicle id="veh58" type="passenger" depart="2569.09" departLane="best">
        <route edges="-8098931#2 -8098931#1 -8098931#0 406645948 13008859#0 13008859#1 13008859#2 13008859#3 13008859#4 13008851#0 13008851#1 425899625#0 425899625#1 34248411 425899624 249888431#0 249888431#1 406645953#0 406645953#1 406645953#2 8106512#0 8106512#1 8106512#2 7996710#3 7996710#4"/>
    </vehicle>
    <vehicle id="veh60" type="passenger" depart="2657.68" departLane="best">
        <route edges="62225057#1 406645953#0 406645953#1 406645953#2 406645953#3 406645953#4 4812029#0 4812029#1 4812029#2 34248409#0 34248409#1 34248409#2 34248409#3 8098931#0 8098931#1 -209235277#1 209235277#1"/>
    </vehicle>
    <vehicle id="veh61" type="passenger" depart="2701.97" departLane="best">
        <route edges="5924283#1 -5924283#1 -5924283#0 -4812819 62225057#0 62225057#1 406645953#0 406645953#1 406645953#2 406645953#3 406645953#4 4812029#0 4812029#1 4812029#2 34248409#0 34248409#1 34248409#2 34248409#3 8098931#0 8098931#1 -8098931#1"/>
    </vehicle>
    <vehicle id="veh62" type="passenger" depart="2746.27" departLane="best">
        <route edges="13008859#4 13008851#0 13008851#1 425899625#0 425899625#1 34248411 425899624 249888431#0 249888431#1 7996708#0 7996708#1 7996708#3 -210406820 7996710#0 7996710#1"/>
    </vehicle>
    <vehicle id="veh64" type="passenger" depart="2834.86" departLane="best">
        <route edges="5924283#1 -5924283#1 -5924283#0 -4812819 62225057#0 62225057#1 406645953#0 406645953#1 406645953#2 406645953#3 406645953#4 4812029#0 4812029#1 4812029#2 34248409#0 34248409#1 34248409#2 34248409#3 406645948 13008859#0 13008859#1"/>
    </vehicle>
    <vehicle id="veh65" type="passenger" depart="2879.15" departLane="best">
        <route edges="-4812819 62225057#0 62225057#1 406645953#0 406645953#1 406645953#2 406645953#3 406645953#4 4812029#0 4812029#1 4812029#2 34248409#0 34248409#1 34248409#2 34248409#3 406645948 13008849#0 13008849#2 13008849#3"/>
    </vehicle>
    <vehicle id="veh66" type="passenger" depart="2923.45" departLane="best">
        <route edges="8098931#2 -8098931#2 -8098931#1 -8098931#0 406645948 13008859#0 13008859#1 13008859#2 13008859#3 13008859#4 13008851#0 13008851#1 425899625#0 425899625#1 34248411 210406807"/>
    </vehicle>
    <vehicle id="veh67" type="passenger" depart="2967.74" departLane="best">
        <route edges="406645953#3 406645953#4 4812029#0 4812029#1 4812029#2 34248409#0 34248409#1 34248409#2 34248409#3 406645948 13008859#0 13008859#1 13008859#2 13008859#3 13008859#4 13008851#0 13008851#1 425899625#0 425899625#1 34248411 425899624 249888431#0 249888431#1 7996708#0 7996708#1 7996708#3 7996707#0 7996707#1 7996707#2 7996707#3 7996707#4 323149841#1 323149841#2 323149841#3"/>
    </vehicle>
    <vehicle id="veh71" type="passenger" depart="3144.92" departLane="best">
        <route edges="209235277#0 209235277#1 -8098931#1 -8098931#0 406645948 13008859#0 13008859#1 13008859#2 13008859#3 13008859#4 13008851#0 13008851#1 425899625#0 425899625#1 34248411 210406807 211479827 62225057#0"/>
    </vehicle>
    <vehicle id="veh72" type="passenger" depart="3189.21" departLane="best">
        <route edges="406645949#1 406645949#2 13008851#0 13008851#1 425899625#0 425899625#1 34248411 210406807 211479827 62225057#0 62225057#1"/>
    </vehicle>
    <vehicle id="veh73" type="passenger" depart="3233.51" departLane="best">
        <route edges="8098931#0 -8098931#0 406645948 13008859#0 13008859#1 13008859#2 13008859#3 13008859#4 13008851#0 13008851#1 425899625#0 425899625#1 34248411 210406807 211479827 4812819 5924283#0 5924283#1 5924284"/>
    </vehicle>
    <vehicle id="veh74" type="passenger" depart="3277.80" departLane="best">
        <route edges="-209235277#1 209235277#1 -8098931#1 -8098931#0 406645948 13008859#0 13008859#1 13008859#2 13008859#3 13008859#4 13008851#0 13008851#1 425899625#0 425899625#1 34248411 425899624 249888431#0 249888431#1 7996708#0 7996708#1 7996708#3 -210406820 210406820"/>
    </vehicle>
    <vehicle id="veh76" type="passenger" depart="3366.39" departLane="best">
        <route edges="62225057#0 62225057#1 406645953#0 406645953#1 406645953#2 406645953#3 406645953#4 4812029#0 4812029#1 4812029#2 34248409#0 34248409#1 34248409#2 34248409#3 406645948 13008849#0 13008849#2 13008849#3"/>
    </vehicle>
    <vehicle id="veh78" type="passenger" depart="3454.98" departLane="best">
        <route edges="13008859#2 13008859#3 13008859#4 13008851#0 13008851#1 425899625#0 425899625#1 34248411 210406807 211479827 4812819 5924283#0 5924283#1 5924284"/>
    </vehicle>
    <vehicle id="veh79" type="passenger" depart="3499.28" departLane="best">
        <route edges="425899624 249888431#0 249888431#1 406645953#0 406645953#1 406645953#2 406645953#3 406645953#4 4812029#0 4812029#1 4812029#2 34248409#0 34248409#1 34248409#2 34248409#3 8098931#0 8098931#1 -209235277#1 -209235277#0"/>
    </vehicle>
    <vehicle id="veh80" type="passenger" depart="3543.57" departLane="best">
        <route edges="209235277#0 209235277#1 -8098931#1 -8098931#0 406645948 13008859#0 13008859#1 13008859#2 13008859#3 13008859#4 13008851#0 13008851#1 425899625#0 425899625#1 34248411 425899624 249888431#0 249888431#1 406645953#0 406645953#1 406645953#2 8106512#0 8106512#1 8106512#2 7996710#3 7996710#4"/>
    </vehicle>
    <vehicle id="veh81" type="passenger" depart="3587.87" departLane="best">
        <route edges="34248409#2 34248409#3 406645948 13008859#0 13008859#1 13008859#2 13008859#3 13008859#4 13008851#0 13008851#1 425899625#0 425899625#1 34248411 425899624 249888431#0 249888431#1 7996708#0 7996708#1 7996708#3"/>
    </vehicle>
</routes>
