<?xml version="1.0" encoding="UTF-8"?>
<!-- generated on 2020-08-29 15:26:31.099019 by $Id$
  options: 
-->
<routes xmlns:xsi="http://www.w3.org/2001/XMLSchema-instance" xsi:noNamespaceSchemaLocation="http://sumo.dlr.de/xsd/routes_file.xsd">
    <vType id="pedestrian" vClass="pedestrian" speedDev="0.1"/>
    <person id="ped0" depart="0.00">
        <personTrip from="406645953#0" to="-200816125#0" modes="public"/>
    </person>
    <person id="ped1" depart="29.51">
        <personTrip from="205831154#3" to="13008859#4" modes="public"/>
    </person>
    <person id="ped2" depart="59.03">
        <personTrip from="573555404#0" to="40694084#4" modes="public"/>
    </person>
    <person id="ped3" depart="88.54">
        <personTrip from="7996707#1" to="-573555402" modes="public"/>
    </person>
    <person id="ped4" depart="118.06">
        <personTrip from="311905726#6" to="-200816125#1" modes="public"/>
    </person>
    <person id="ped5" depart="147.57">
        <personTrip from="13008859#3" to="389187600#0" modes="public"/>
    </person>
    <person id="ped6" depart="177.08">
        <personTrip from="-200816125#0" to="13008851#0" modes="public"/>
    </person>
    <person id="ped7" depart="206.60">
        <personTrip from="406645953#2" to="389801985#10" modes="public"/>
    </person>
    <person id="ped8" depart="236.11">
        <personTrip from="13008859#3" to="389801985#5" modes="public"/>
    </person>
    <person id="ped9" depart="265.63">
        <personTrip from="5924282" to="-163384655#1" modes="public"/>
    </person>
    <person id="ped10" depart="295.14">
        <personTrip from="587123518" to="4812029#1" modes="public"/>
    </person>
    <person id="ped11" depart="324.66">
        <personTrip from="209235303#8" to="-7996708#0" modes="public"/>
    </person>
    <person id="ped12" depart="354.17">
        <personTrip from="8098931#2" to="209235303#8" modes="public"/>
    </person>
    <person id="ped13" depart="383.68">
        <personTrip from="-573555403#0" to="-573555403#1" modes="public"/>
    </person>
    <person id="ped14" depart="413.20">
        <personTrip from="592688632#2" to="389801985#8" modes="public"/>
    </person>
    <person id="ped15" depart="442.71">
        <personTrip from="587123518" to="573555403#0" modes="public"/>
    </person>
    <person id="ped16" depart="472.23">
        <personTrip from="389801985#0" to="8098935" modes="public"/>
    </person>
    <person id="ped17" depart="501.74">
        <personTrip from="249888431#0" to="389801985#12" modes="public"/>
    </person>
    <person id="ped18" depart="531.25">
        <personTrip from="592688630" to="406645949#0" modes="public"/>
    </person>
    <person id="ped19" depart="560.77">
        <personTrip from="592688634" to="389801985#18" modes="public"/>
    </person>
    <person id="ped20" depart="590.28">
        <personTrip from="4812819" to="-205831154#3" modes="public"/>
    </person>
    <person id="ped21" depart="619.80">
        <personTrip from="163384655#1" to="209235298" modes="public"/>
    </person>
    <person id="ped22" depart="649.31">
        <personTrip from="-32643415" to="163384655#2" modes="public"/>
    </person>
    <person id="ped23" depart="678.83">
        <personTrip from="-587123518" to="209235277#0" modes="public"/>
    </person>
    <person id="ped24" depart="708.34">
        <personTrip from="406645950" to="212783666#0" modes="public"/>
    </person>
    <person id="ped25" depart="737.85">
        <personTrip from="212783666#1" to="13008859#1" modes="public"/>
    </person>
    <person id="ped26" depart="767.37">
        <personTrip from="205831154#1" to="7996710#3" modes="public"/>
    </person>
    <person id="ped27" depart="796.88">
        <personTrip from="406645953#2" to="389808131" modes="public"/>
    </person>
    <person id="ped28" depart="826.40">
        <personTrip from="-8098931#2" to="573555403#0" modes="public"/>
    </person>
    <person id="ped29" depart="855.91">
        <personTrip from="-8098931#0" to="249888431#0" modes="public"/>
    </person>
    <person id="ped30" depart="885.42">
        <personTrip from="8106512#1" to="406645953#0" modes="public"/>
    </person>
    <person id="ped31" depart="914.94">
        <personTrip from="389801985#13" to="425899625#0" modes="public"/>
    </person>
    <person id="ped32" depart="944.45">
        <personTrip from="592688632#1" to="573555404#3" modes="public"/>
    </person>
    <person id="ped33" depart="973.97">
        <personTrip from="163384655#1" to="-205831154#0" modes="public"/>
    </person>
    <person id="ped34" depart="1003.48">
        <personTrip from="209235303#3" to="205831154#1" modes="public"/>
    </person>
    <person id="ped35" depart="1033.00">
        <personTrip from="13008859#1" to="7996710#4" modes="public"/>
    </person>
    <person id="ped36" depart="1062.51">
        <personTrip from="62225057#1" to="209235303#3" modes="public"/>
    </person>
    <person id="ped37" depart="1092.02">
        <personTrip from="406645953#4" to="311905726#1" modes="public"/>
    </person>
    <person id="ped38" depart="1121.54">
        <personTrip from="7996708#1" to="32643415" modes="public"/>
    </person>
    <person id="ped39" depart="1151.05">
        <personTrip from="205831154#1" to="176359800#1" modes="public"/>
    </person>
    <person id="ped40" depart="1180.57">
        <personTrip from="389801985#14" to="205831154#0" modes="public"/>
    </person>
    <person id="ped41" depart="1210.08">
        <personTrip from="389801985#4" to="7996707#2" modes="public"/>
    </person>
    <person id="ped42" depart="1239.59">
        <personTrip from="311905726#1" to="13008859#3" modes="public"/>
    </person>
    <person id="ped43" depart="1269.11">
        <personTrip from="817186348" to="389187600#1" modes="public"/>
    </person>
    <person id="ped44" depart="1298.62">
        <personTrip from="-573555403#0" to="-205831154#3" modes="public"/>
    </person>
    <person id="ped45" depart="1328.14">
        <personTrip from="-5924283#1" to="406645949#2" modes="public"/>
    </person>
    <person id="ped46" depart="1357.65">
        <personTrip from="573555404#7" to="311905726#6" modes="public"/>
    </person>
    <person id="ped47" depart="1387.16">
        <personTrip from="-209235298" to="249888431#0" modes="public"/>
    </person>
    <person id="ped48" depart="1416.68">
        <personTrip from="817186348" to="389801713#1" modes="public"/>
    </person>
    <person id="ped49" depart="1446.19">
        <personTrip from="8098934#1" to="592688634" modes="public"/>
    </person>
    <person id="ped50" depart="1475.71">
        <personTrip from="-163384655#2" to="539249086" modes="public"/>
    </person>
    <person id="ped51" depart="1505.22">
        <personTrip from="425899624" to="389801985#1" modes="public"/>
    </person>
    <person id="ped52" depart="1534.74">
        <personTrip from="205831154#1" to="406645953#1" modes="public"/>
    </person>
    <person id="ped53" depart="1564.25">
        <personTrip from="-5924283#1" to="311906769#1" modes="public"/>
    </person>
    <person id="ped54" depart="1593.76">
        <personTrip from="323149841#3" to="8098931#1" modes="public"/>
    </person>
    <person id="ped55" depart="1623.28">
        <personTrip from="62225057#1" to="205831154#0" modes="public"/>
    </person>
    <person id="ped56" depart="1652.79">
        <personTrip from="353879096#3" to="-817186348" modes="public"/>
    </person>
    <person id="ped57" depart="1682.31">
        <personTrip from="7996708#0" to="62225057#0" modes="public"/>
    </person>
    <person id="ped58" depart="1711.82">
        <personTrip from="209235300" to="406645953#0" modes="public"/>
    </person>
    <person id="ped59" depart="1741.33">
        <personTrip from="389801985#9" to="-7996707#0" modes="public"/>
    </person>
    <person id="ped60" depart="1770.85">
        <personTrip from="573555404#13" to="389801985#1" modes="public"/>
    </person>
    <person id="ped61" depart="1800.36">
        <personTrip from="573555404#4" to="389801713#1" modes="public"/>
    </person>
    <person id="ped62" depart="1829.88">
        <personTrip from="-163384655#0" to="209235303#5" modes="public"/>
    </person>
    <person id="ped63" depart="1859.39">
        <personTrip from="-176359800#1" to="7996710#1" modes="public"/>
    </person>
    <person id="ped64" depart="1888.91">
        <personTrip from="62333277" to="592688630" modes="public"/>
    </person>
    <person id="ped65" depart="1918.42">
        <personTrip from="209235303#1" to="-209235277#1" modes="public"/>
    </person>
    <person id="ped66" depart="1947.93">
        <personTrip from="62333277" to="8098931#0" modes="public"/>
    </person>
    <person id="ped67" depart="1977.45">
        <personTrip from="-4812819" to="34248410#1" modes="public"/>
    </person>
    <person id="ped68" depart="2006.96">
        <personTrip from="-209235304" to="573555404#13" modes="public"/>
    </person>
    <person id="ped69" depart="2036.48">
        <personTrip from="573555404#14" to="-592688632#2" modes="public"/>
    </person>
    <person id="ped70" depart="2065.99">
        <personTrip from="34248409#3" to="389801985#11" modes="public"/>
    </person>
    <person id="ped71" depart="2095.50">
        <personTrip from="205831154#1" to="62225057#0" modes="public"/>
    </person>
    <person id="ped72" depart="2125.02">
        <personTrip from="311905726#7" to="13008859#1" modes="public"/>
    </person>
    <person id="ped73" depart="2154.53">
        <personTrip from="389801985#1" to="573555403#0" modes="public"/>
    </person>
    <person id="ped74" depart="2184.05">
        <personTrip from="13008851#1" to="209235303#2" modes="public"/>
    </person>
    <person id="ped75" depart="2213.56">
        <personTrip from="8106512#2" to="406645953#2" modes="public"/>
    </person>
    <person id="ped76" depart="2243.08">
        <personTrip from="311906769#2" to="389187600#2" modes="public"/>
    </person>
    <person id="ped77" depart="2272.59">
        <personTrip from="-592688632#0" to="13008859#4" modes="public"/>
    </person>
    <person id="ped78" depart="2302.10">
        <personTrip from="209235303#8" to="389801985#5" modes="public"/>
    </person>
    <person id="ped79" depart="2331.62">
        <personTrip from="163384655#1" to="13008859#3" modes="public"/>
    </person>
    <person id="ped80" depart="2361.13">
        <personTrip from="-209235304" to="406645949#2" modes="public"/>
    </person>
    <person id="ped81" depart="2390.65">
        <personTrip from="163384655#1" to="7996707#4" modes="public"/>
    </person>
    <person id="ped82" depart="2420.16">
        <personTrip from="592688634" to="-209235304" modes="public"/>
    </person>
    <person id="ped83" depart="2449.67">
        <personTrip from="163384657" to="40694084#3" modes="public"/>
    </person>
    <person id="ped84" depart="2479.19">
        <personTrip from="13008859#2" to="-592688632#3" modes="public"/>
    </person>
    <person id="ped85" depart="2508.70">
        <personTrip from="7996710#2" to="389801985#16" modes="public"/>
    </person>
    <person id="ped86" depart="2538.22">
        <personTrip from="34248409#2" to="573555404#5" modes="public"/>
    </person>
    <person id="ped87" depart="2567.73">
        <personTrip from="587123518" to="13008849#2" modes="public"/>
    </person>
    <person id="ped88" depart="2597.25">
        <personTrip from="-573555403#1" to="311906769#0" modes="public"/>
    </person>
    <person id="ped89" depart="2626.76">
        <personTrip from="311905726#7" to="34248409#1" modes="public"/>
    </person>
    <person id="ped90" depart="2656.27">
        <personTrip from="573555403#0" to="40694084#4" modes="public"/>
    </person>
    <person id="ped91" depart="2685.79">
        <personTrip from="8106512#0" to="-573555403#1" modes="public"/>
    </person>
    <person id="ped92" depart="2715.30">
        <personTrip from="311905726#2" to="209235303#8" modes="public"/>
    </person>
    <person id="ped93" depart="2744.82">
        <personTrip from="592688634" to="176359800#1" modes="public"/>
    </person>
    <person id="ped94" depart="2774.33">
        <personTrip from="13008849#2" to="323149841#2" modes="public"/>
    </person>
    <person id="ped95" depart="2803.84">
        <personTrip from="311905726#6" to="209235277#0" modes="public"/>
    </person>
    <person id="ped96" depart="2833.36">
        <personTrip from="176359800#1" to="7996710#0" modes="public"/>
    </person>
    <person id="ped97" depart="2862.87">
        <personTrip from="323149841#1" to="592688634" modes="public"/>
    </person>
    <person id="ped98" depart="2892.39">
        <personTrip from="389801985#12" to="-209235277#0" modes="public"/>
    </person>
    <person id="ped99" depart="2921.90">
        <personTrip from="817186348" to="592688631" modes="public"/>
    </person>
    <person id="ped100" depart="2951.41">
        <personTrip from="8098934#1" to="7996710#0" modes="public"/>
    </person>
    <person id="ped101" depart="2980.93">
        <personTrip from="592688632#2" to="-8098931#1" modes="public"/>
    </person>
    <person id="ped102" depart="3010.44">
        <personTrip from="34248410#1" to="13008859#2" modes="public"/>
    </person>
    <person id="ped103" depart="3039.96">
        <personTrip from="311905726#2" to="-209235277#1" modes="public"/>
    </person>
    <person id="ped104" depart="3069.47">
        <personTrip from="249888431#0" to="8106512#0" modes="public"/>
    </person>
    <person id="ped105" depart="3098.99">
        <personTrip from="205831154#1" to="573555404#5" modes="public"/>
    </person>
    <person id="ped106" depart="3128.50">
        <personTrip from="32643415" to="311905726#7" modes="public"/>
    </person>
    <person id="ped107" depart="3158.01">
        <personTrip from="8098931#2" to="8106512#2" modes="public"/>
    </person>
    <person id="ped108" depart="3187.53">
        <personTrip from="389801985#13" to="539249086" modes="public"/>
    </person>
    <person id="ped109" depart="3217.04">
        <personTrip from="-7996708#0" to="209235300" modes="public"/>
    </person>
    <person id="ped110" depart="3246.56">
        <personTrip from="8098934#1" to="389801985#18" modes="public"/>
    </person>
    <person id="ped111" depart="3276.07">
        <personTrip from="389801985#10" to="573555404#10" modes="public"/>
    </person>
    <person id="ped112" depart="3305.58">
        <personTrip from="-209235277#1" to="389801985#4" modes="public"/>
    </person>
    <person id="ped113" depart="3335.10">
        <personTrip from="353879096#3" to="592688632#3" modes="public"/>
    </person>
    <person id="ped114" depart="3364.61">
        <personTrip from="-7996708#0" to="8098931#3" modes="public"/>
    </person>
    <person id="ped115" depart="3394.13">
        <personTrip from="-32643415" to="13008849#0" modes="public"/>
    </person>
    <person id="ped116" depart="3423.64">
        <personTrip from="389801985#6" to="40694084#4" modes="public"/>
    </person>
    <person id="ped117" depart="3453.16">
        <personTrip from="163384655#2" to="-592688632#0" modes="public"/>
    </person>
    <person id="ped118" depart="3482.67">
        <personTrip from="7996707#0" to="176359800#1" modes="public"/>
    </person>
    <person id="ped119" depart="3512.18">
        <personTrip from="389801985#6" to="406645949#0" modes="public"/>
    </person>
    <person id="ped120" depart="3541.70">
        <personTrip from="311905726#6" to="389801985#4" modes="public"/>
    </person>
    <person id="ped121" depart="3571.21">
        <personTrip from="389801713#0" to="7996710#2" modes="public"/>
    </person>
</routes>
