<?xml version="1.0" encoding="UTF-8"?>

<!-- generated on 08/29/20 15:26:19 by SUMO polyconvert Version 0.32.0
<?xml version="1.0" encoding="UTF-8"?>

<configuration xmlns:xsi="http://www.w3.org/2001/XMLSchema-instance" xsi:noNamespaceSchemaLocation="http://sumo.dlr.de/xsd/polyconvertConfiguration.xsd">

    <input>
        <net-file value="C:\Users\JTech%20Global\Sumo\2020-08-29-15-26-12\osm.net.xml"/>
        <osm-files value="osm_bbox.osm.xml"/>
        <osm.keep-full-type value="true"/>
        <type-file value="C:\Program%20Files%20(x86)\DLR\Sumo\data\typemap\osmPolyconvert.typ.xml"/>
    </input>

    <output>
        <output-file value="C:\Users\JTech%20Global\Sumo\2020-08-29-15-26-12\osm.poly.xml"/>
    </output>

    <processing>
        <poi-layer-offset value="5"/>
    </processing>

    <report>
        <verbose value="true"/>
    </report>

</configuration>
-->

<additional xmlns:xsi="http://www.w3.org/2001/XMLSchema-instance" xsi:noNamespaceSchemaLocation="http://sumo.dlr.de/xsd/additional_file.xsd">
    <location netOffset="-467623.62,-5549902.20" convBoundary="-5657.33,-2196.74,1402.91,909.75" origBoundary="8.468410,50.080402,8.566836,50.108750" projParameter="+proj=utm +zone=32 +ellps=WGS84 +datum=WGS84 +units=m +no_defs"/>

    <poly id="101400077" type="building.yes" color="255,230,230" fill="1" layer="-1.00" shape="565.28,141.70 564.31,135.95 559.64,108.37 577.64,105.34 581.72,104.82 589.35,151.79 586.66,152.28 575.51,146.82 572.94,147.13 570.42,151.26 562.70,147.39 565.28,141.70"/>
    <poly id="101400078" type="building.yes" color="255,230,230" fill="1" layer="-1.00" shape="562.70,147.39 560.68,146.55 556.05,155.12 549.17,151.69 539.88,147.05 544.57,138.28 564.31,135.95 565.28,141.70 562.70,147.39"/>
    <poly id="101400079" type="building.hotel" color="255,230,230" fill="1" layer="-1.00" shape="378.99,190.72 380.02,188.79 414.33,121.36 431.25,129.93 429.66,133.05 458.58,147.70 451.71,161.21 467.69,169.29 476.62,151.76 490.58,158.83 472.92,193.47 459.52,186.68 461.87,182.07 446.05,174.06 440.46,185.05 437.14,191.56 406.49,176.03 397.62,193.45 393.11,191.17 391.38,194.67 390.40,196.50 378.99,190.72"/>
    <poly id="103699479" type="building.yes" color="255,230,230" fill="1" layer="-1.00" shape="760.82,421.82 761.73,409.95 716.74,406.48 717.69,394.29 703.64,393.21 702.69,405.41 682.25,403.83 681.33,415.70 760.82,421.82"/>
    <poly id="103699690" type="building.yes" color="255,230,230" fill="1" layer="-1.00" shape="535.33,434.60 568.91,386.41 560.02,380.25 553.47,389.66 541.31,381.24 527.45,401.12 524.13,398.82 504.42,427.11 523.03,440.01 529.58,430.62 535.33,434.60"/>
    <poly id="103699690#1" type="shop.supermarket" color="237,199,255" fill="1" layer="-1.00" shape="535.33,434.60 568.91,386.41 560.02,380.25 553.47,389.66 541.31,381.24 527.45,401.12 524.13,398.82 504.42,427.11 523.03,440.01 529.58,430.62 535.33,434.60"/>
    <poly id="103699712" type="building.yes" color="255,230,230" fill="1" layer="-1.00" shape="182.94,342.89 107.51,339.79 106.44,365.61 104.38,365.53 103.99,374.79 98.80,374.58 98.19,389.48 119.45,390.35 119.30,394.01 155.81,395.52 157.17,362.69 182.07,363.72 182.94,342.89"/>
    <poly id="103888680" type="building.yes" color="255,230,230" fill="1" layer="-1.00" shape="459.44,286.18 461.25,279.48 471.37,282.79 468.13,292.63 464.40,292.68 464.41,287.73 459.44,286.18"/>
    <poly id="103888682" type="building.yes" color="255,230,230" fill="1" layer="-1.00" shape="408.57,208.36 414.99,195.59 428.25,202.24 421.83,215.00 408.57,208.36"/>
    <poly id="103888683" type="building.yes" color="255,230,230" fill="1" layer="-1.00" shape="444.30,206.65 451.26,193.22 465.31,200.48 458.36,213.89 457.11,213.26 446.54,207.80 444.30,206.65"/>
    <poly id="103888686" type="building.yes" color="255,230,230" fill="1" layer="-1.00" shape="461.71,241.25 468.55,227.75 482.21,234.62 475.37,248.13 461.71,241.25"/>
    <poly id="103888687" type="building.yes" color="255,230,230" fill="1" layer="-1.00" shape="436.70,222.72 443.20,209.91 444.99,210.82 455.60,216.18 457.35,217.06 450.86,229.85 436.70,222.72"/>
    <poly id="103888688" type="building.yes" color="255,230,230" fill="1" layer="-1.00" shape="415.02,244.81 424.36,228.06 460.43,248.14 451.20,264.82 415.02,244.81"/>
    <poly id="103888689" type="building.yes" color="255,230,230" fill="1" layer="-1.00" shape="511.04,242.71 497.30,238.21 493.19,250.69 506.93,255.19 507.26,254.17 511.04,242.71"/>
    <poly id="103888690" type="amenity.parking" color="184,184,179" fill="1" layer="-1.00" shape="581.72,104.82 599.69,101.95 605.74,149.01 599.14,150.18 589.35,151.79 581.72,104.82"/>
    <poly id="103888691" type="building.yes" color="255,230,230" fill="1" layer="-1.00" shape="493.19,250.69 482.68,282.65 495.36,286.80 496.26,284.07 510.60,288.77 520.56,258.52 507.26,254.17 506.93,255.19 493.19,250.69"/>
    <poly id="103888693" type="building.yes" color="255,230,230" fill="1" layer="-1.00" shape="415.02,244.81 409.65,254.48 445.82,274.50 451.20,264.82 415.02,244.81"/>
    <poly id="103892810" type="building.apartments" color="255,230,230" fill="1" layer="-1.00" shape="562.38,214.95 567.98,203.95 578.74,209.42 573.13,220.41 562.38,214.95"/>
    <poly id="103892811" type="building.yes" color="255,230,230" fill="1" layer="-1.00" shape="555.67,265.79 554.61,227.56 533.92,228.13 535.60,288.32 556.28,287.74 556.02,278.17 555.67,265.79"/>
    <poly id="103892812" type="building.yes" color="255,230,230" fill="1" layer="-1.00" shape="588.98,264.87 589.31,276.67 594.77,276.51 594.80,277.71 600.20,277.56 600.16,275.96 611.78,273.68 611.18,261.06 594.11,261.65 592.80,260.84 590.76,263.61 590.79,264.82 588.98,264.87"/>
    <poly id="103892813" type="building.office" color="255,230,230" fill="1" layer="-1.00" shape="583.20,222.44 589.12,211.09 624.69,229.52 621.84,235.01 628.50,238.43 626.14,242.60 625.28,246.44 625.53,252.60 626.95,257.64 629.08,260.99 621.35,265.93 622.63,267.92 615.28,272.61 614.74,271.79 611.78,273.68 611.18,261.06 609.83,232.67 603.64,233.04 603.57,231.21 600.49,231.40 583.20,222.44"/>
    <poly id="103892814" type="building.yes" color="255,230,230" fill="1" layer="-1.00" shape="373.74,231.42 371.55,230.30 374.80,224.03 364.22,218.59 356.45,233.63 366.96,239.04 369.96,233.24 372.20,234.39 373.74,231.42"/>
    <poly id="103892815" type="building.yes" color="255,230,230" fill="1" layer="-1.00" shape="374.86,197.99 366.79,213.84 377.98,219.51 380.40,214.74 381.89,215.50 384.77,209.82 383.51,209.18 386.27,203.77 374.86,197.99"/>
    <poly id="103892816" type="building.commercial" color="255,230,230" fill="1" layer="-1.00" shape="340.78,274.76 343.60,270.26 363.95,281.58 365.38,282.71 365.31,284.27 363.98,285.55 362.41,285.92 359.41,285.16 340.78,274.76"/>
    <poly id="103892817" type="building.yes" color="255,230,230" fill="1" layer="-1.00" shape="484.52,192.62 490.81,180.70 504.52,187.89 498.22,199.82 484.52,192.62"/>
    <poly id="103892818" type="building.industrial" color="255,230,230" fill="1" layer="-1.00" shape="381.07,268.14 388.32,271.96 383.53,280.99 376.28,277.16 380.02,270.12 381.07,268.14"/>
    <poly id="103892819" type="building.apartments" color="255,230,230" fill="1" layer="-1.00" shape="394.48,277.15 400.65,266.18 400.88,265.75 405.47,268.31 406.26,266.90 408.98,268.42 408.34,269.55 412.92,272.11 409.16,278.82 406.37,283.79 394.48,277.15"/>
    <poly id="103892820" type="building.yes" color="255,230,230" fill="1" layer="-1.00" shape="385.21,250.11 370.97,242.37 366.73,250.12 380.97,257.86 385.21,250.11"/>
    <poly id="103892821" type="building.apartments" color="255,230,230" fill="1" layer="-1.00" shape="421.97,273.20 432.31,278.97 426.86,288.70 416.51,282.94 420.58,275.68 421.97,273.20"/>
    <poly id="103892822" type="building.yes" color="255,230,230" fill="1" layer="-1.00" shape="356.45,233.63 346.16,253.50 356.67,258.92 366.96,239.04 356.45,233.63"/>
    <poly id="103892823" type="building.industrial" color="255,230,230" fill="1" layer="-1.00" shape="366.28,271.88 370.02,264.85 380.02,270.12 376.28,277.16 366.28,271.88"/>
    <poly id="103892824" type="building.yes" color="255,230,230" fill="1" layer="-1.00" shape="378.99,190.72 374.86,197.99 386.27,203.77 390.40,196.50 378.99,190.72"/>
    <poly id="103893996" type="building.yes" color="255,230,230" fill="1" layer="-1.00" shape="691.27,334.65 691.25,323.76 711.92,323.70 711.92,321.35 723.26,321.32 723.31,342.03 707.24,342.07 707.22,334.60 691.27,334.65"/>
    <poly id="104033313" type="building.yes" color="255,230,230" fill="1" layer="-1.00" shape="162.48,175.33 156.48,171.01 161.82,163.45 164.89,159.18 167.71,155.23 170.32,157.07 168.59,159.48 172.45,162.23 169.96,165.72 167.72,164.13 165.51,167.23 167.34,168.52 162.48,175.33"/>
    <poly id="104033327" type="building.yes" color="255,230,230" fill="1" layer="-1.00" shape="204.60,172.55 220.32,180.27 217.92,185.15 206.63,179.61 204.29,184.35 203.16,183.77 198.53,181.43 204.60,172.55"/>
    <poly id="104033329" type="building.yes" color="255,230,230" fill="1" layer="-1.00" shape="205.81,186.13 209.14,187.80 209.76,186.56 213.82,188.60 213.20,189.86 216.04,191.29 211.83,199.62 201.59,194.46 203.37,190.95 205.81,186.13"/>
    <poly id="104033331" type="building.yes" color="255,230,230" fill="1" layer="-1.00" shape="133.88,146.98 134.93,145.49 136.98,146.93 138.72,144.46 142.51,147.11 140.98,149.26 144.09,151.45 149.23,144.18 152.56,146.51 147.50,153.68 142.30,161.04 130.03,152.43 133.88,146.98"/>
    <poly id="104033341" type="building.yes" color="255,230,230" fill="1" layer="-1.00" shape="233.57,158.13 221.67,152.41 219.12,157.69 217.31,161.41 229.22,167.13 233.57,158.13"/>
    <poly id="104033352" type="building.yes" color="255,230,230" fill="1" layer="-1.00" shape="231.77,139.58 229.71,138.62 227.84,142.51 225.95,146.44 236.58,151.53 240.27,143.72 231.77,139.58"/>
    <poly id="104033357" type="building.yes" color="255,230,230" fill="1" layer="-1.00" shape="178.76,168.12 182.46,162.46 189.66,167.43 204.60,172.55 198.53,181.43 193.77,178.22 178.76,168.12"/>
    <poly id="104033365" type="building.yes" color="255,230,230" fill="1" layer="-1.00" shape="125.30,135.74 119.70,131.80 118.26,133.83 116.85,132.85 115.14,135.26 113.66,134.23 110.50,138.72 118.98,144.67 125.30,135.74"/>
    <poly id="104033371" type="building.yes" color="255,230,230" fill="1" layer="-1.00" shape="202.56,113.17 195.91,109.89 190.12,121.87 177.25,150.41 183.50,152.92 184.73,150.83 202.56,113.17"/>
    <poly id="104033375" type="building.yes" color="255,230,230" fill="1" layer="-1.00" shape="143.46,132.30 145.09,129.92 157.97,138.68 152.56,146.51 149.23,144.18 139.73,137.76 143.46,132.30"/>
    <poly id="104033390" type="building.yes" color="255,230,230" fill="1" layer="-1.00" shape="180.24,116.76 168.88,140.18 162.45,135.59 170.62,122.31 169.01,121.20 175.41,114.21 180.24,116.76"/>
    <poly id="104033406" type="building.yes" color="255,230,230" fill="1" layer="-1.00" shape="237.78,127.26 236.66,126.72 234.42,131.30 233.16,130.68 231.07,134.97 233.45,136.12 231.77,139.58 240.27,143.72 246.29,131.41 237.78,127.26"/>
    <poly id="104033410" type="building.yes" color="255,230,230" fill="1" layer="-1.00" shape="210.87,129.58 214.16,122.77 220.71,125.90 226.91,128.88 225.31,132.21 223.63,135.70 216.24,132.16 210.87,129.58"/>
    <poly id="104033414" type="building.yes" color="255,230,230" fill="1" layer="-1.00" shape="212.14,140.66 216.24,132.16 223.63,135.70 221.75,139.58 219.53,144.20 212.14,140.66"/>
    <poly id="104033422" type="building.yes" color="255,230,230" fill="1" layer="-1.00" shape="191.37,181.53 177.57,172.36 171.10,181.45 189.41,194.24 192.56,190.14 198.53,181.43 193.77,178.22 191.37,181.53"/>
    <poly id="104033425" type="building.yes" color="255,230,230" fill="1" layer="-1.00" shape="213.96,159.80 217.31,161.41 219.12,157.69 215.76,156.07 213.96,159.80"/>
    <poly id="104033426" type="building.yes" color="255,230,230" fill="1" layer="-1.00" shape="143.46,132.30 130.19,123.53 126.32,129.35 128.60,130.84 125.30,135.74 127.70,137.42 129.24,135.05 135.63,139.28 134.33,141.23 136.52,142.69 139.73,137.76 143.46,132.30"/>
    <poly id="104033429" type="building.yes" color="255,230,230" fill="1" layer="-1.00" shape="127.70,137.42 126.16,139.61 132.37,143.98 131.45,145.27 133.88,146.98 130.03,152.43 118.98,144.67 125.30,135.74 127.70,137.42"/>
    <poly id="104033443" type="building.yes" color="255,230,230" fill="1" layer="-1.00" shape="206.35,161.38 226.35,169.70 223.10,177.44 203.11,169.14 206.35,161.38"/>
    <poly id="104033444" type="building.yes" color="255,230,230" fill="1" layer="-1.00" shape="147.50,153.68 152.85,157.44 154.48,155.13 160.04,159.03 158.55,161.14 161.82,163.45 156.48,171.01 142.30,161.04 147.50,153.68"/>
    <poly id="104033444#1" type="shop.bakery" color="237,199,255" fill="1" layer="-1.00" shape="147.50,153.68 152.85,157.44 154.48,155.13 160.04,159.03 158.55,161.14 161.82,163.45 156.48,171.01 142.30,161.04 147.50,153.68"/>
    <poly id="104033448" type="building.yes" color="255,230,230" fill="1" layer="-1.00" shape="212.14,140.66 210.67,143.82 206.32,141.76 210.65,132.66 209.65,132.19 210.87,129.58 216.24,132.16 212.14,140.66"/>
    <poly id="104033450" type="building.yes" color="255,230,230" fill="1" layer="-1.00" shape="206.35,161.38 200.32,159.26 201.02,157.53 191.03,153.54 184.73,150.83 183.50,152.92 179.78,159.23 203.11,169.14 206.35,161.38"/>
    <poly id="104033466" type="building.yes" color="255,230,230" fill="1" layer="-1.00" shape="208.99,116.01 202.56,113.17 184.73,150.83 191.03,153.54 192.29,150.90 197.33,140.38 208.80,116.40 208.99,116.01"/>
    <poly id="104033472" type="building.yes" color="255,230,230" fill="1" layer="-1.00" shape="223.63,135.70 229.71,138.62 227.84,142.51 221.75,139.58 223.63,135.70"/>
    <poly id="104033477" type="building.yes" color="255,230,230" fill="1" layer="-1.00" shape="154.17,150.76 161.49,140.44 167.90,145.12 164.03,153.18 167.71,155.23 164.89,159.18 154.17,150.76"/>
    <poly id="104033482" type="building.yes" color="255,230,230" fill="1" layer="-1.00" shape="177.57,172.36 174.67,170.31 179.02,164.21 173.72,160.45 172.45,162.23 169.96,165.72 171.96,167.14 169.76,170.24 167.34,168.52 162.48,175.33 171.10,181.45 177.57,172.36"/>
    <poly id="104037713" type="building.yes" color="255,230,230" fill="1" layer="-1.00" shape="299.78,185.82 309.88,188.40 307.72,196.85 297.62,194.27 299.78,185.82"/>
    <poly id="104037715" type="building.yes" color="255,230,230" fill="1" layer="-1.00" shape="274.88,145.42 294.17,154.82 289.27,165.70 287.78,166.55 279.74,162.74 277.38,167.68 275.48,168.62 260.81,161.62 269.89,143.00 274.88,145.42"/>
    <poly id="104037719" type="building.yes" color="255,230,230" fill="1" layer="-1.00" shape="314.97,155.71 313.86,157.92 306.33,154.17 315.34,136.19 320.50,138.76 329.05,121.71 331.41,122.91 327.70,130.30 314.97,155.71"/>
    <poly id="104037720" type="building.yes" color="255,230,230" fill="1" layer="-1.00" shape="261.38,130.41 258.49,129.02 244.43,157.82 256.61,163.73 258.25,160.38 260.81,161.62 269.89,143.00 274.88,145.42 278.21,138.59 270.64,134.92 261.38,130.41"/>
    <poly id="104037722" type="building.yes" color="255,230,230" fill="1" layer="-1.00" shape="313.99,186.99 323.64,189.78 320.50,200.63 309.08,197.34 310.95,190.88 312.71,191.39 313.99,186.99"/>
    <poly id="104037724" type="building.yes" color="255,230,230" fill="1" layer="-1.00" shape="289.30,183.28 278.39,180.68 276.22,189.71 287.09,192.31 287.22,191.69 289.30,183.28"/>
    <poly id="104037725" type="building.yes" color="255,230,230" fill="1" layer="-1.00" shape="327.70,130.30 329.42,131.15 331.71,126.53 337.72,129.50 320.76,163.73 316.04,161.41 318.10,157.25 314.97,155.71 327.70,130.30"/>
    <poly id="104037728" type="building.yes" color="255,230,230" fill="1" layer="-1.00" shape="239.66,167.60 235.83,176.08 237.44,179.01 248.97,182.36 250.41,176.56 251.84,173.51 239.66,167.60"/>
    <poly id="104037729" type="building.yes" color="255,230,230" fill="1" layer="-1.00" shape="278.39,180.68 267.57,177.95 265.26,186.92 276.22,189.71 278.39,180.68"/>
    <poly id="104037734" type="building.yes" color="255,230,230" fill="1" layer="-1.00" shape="333.78,165.26 339.10,154.99 351.18,161.21 350.40,162.70 368.40,171.97 363.02,182.36 353.80,177.61 354.11,177.01 344.02,171.81 344.54,170.80 333.78,165.26"/>
    <poly id="104037739" type="building.yes" color="255,230,230" fill="1" layer="-1.00" shape="299.78,185.82 289.30,183.28 287.22,191.69 297.62,194.27 299.78,185.82"/>
    <poly id="104037747" type="building.yes" color="255,230,230" fill="1" layer="-1.00" shape="265.26,186.92 252.96,183.55 256.04,172.35 268.27,175.70 267.57,177.95 265.26,186.92"/>
    <poly id="104037752" type="building.yes" color="255,230,230" fill="1" layer="-1.00" shape="337.26,197.19 339.92,191.92 341.89,192.91 346.29,184.16 358.87,190.46 351.81,204.48 339.16,198.14 337.26,197.19"/>
    <poly id="104037754" type="building.yes" color="255,230,230" fill="1" layer="-1.00" shape="306.98,133.54 298.45,129.03 297.34,131.11 292.48,128.54 283.92,144.66 302.58,154.52 311.37,137.99 306.10,135.19 306.98,133.54"/>
    <poly id="104037758" type="building.yes" color="255,230,230" fill="1" layer="-1.00" shape="346.99,145.77 351.27,138.45 351.96,138.84 357.50,142.06 378.80,154.43 374.53,161.76 346.99,145.77"/>
    <poly id="104037760" type="building.yes" color="255,230,230" fill="1" layer="-1.00" shape="356.32,130.92 351.96,138.84 357.50,142.06 361.93,133.89 356.32,130.92"/>
    <poly id="104037761" type="building.yes" color="255,230,230" fill="1" layer="-1.00" shape="285.91,103.63 276.64,99.12 261.38,130.41 270.64,134.92 285.91,103.63"/>
    <poly id="104041163" type="building.yes" color="255,230,230" fill="1" layer="-1.00" shape="329.49,232.29 319.26,226.85 316.33,232.31 314.32,231.25 311.65,236.25 313.84,237.42 311.03,242.68 321.09,248.03 329.49,232.29"/>
    <poly id="104041166" type="building.yes" color="255,230,230" fill="1" layer="-1.00" shape="289.57,220.32 274.16,217.85 271.71,222.85 279.30,226.42 279.76,225.56 286.07,227.21 289.57,220.32"/>
    <poly id="104041167" type="building.yes" color="255,230,230" fill="1" layer="-1.00" shape="240.06,200.66 236.11,198.74 236.86,197.21 235.14,196.39 239.14,188.03 245.25,189.68 240.06,200.66"/>
    <poly id="104041168" type="building.yes" color="255,230,230" fill="1" layer="-1.00" shape="278.68,198.00 288.47,200.79 286.16,208.88 280.82,207.35 280.34,209.02 275.89,207.76 278.68,198.00"/>
    <poly id="104041169" type="building.yes" color="255,230,230" fill="1" layer="-1.00" shape="270.99,241.77 276.66,230.87 283.12,234.21 281.43,237.45 277.50,245.08 270.99,241.77"/>
    <poly id="104041170" type="building.yes" color="255,230,230" fill="1" layer="-1.00" shape="286.16,208.88 285.31,211.78 286.62,212.15 286.28,213.31 288.68,214.00 289.01,212.88 292.57,213.90 295.73,202.95 288.47,200.79 286.16,208.88"/>
    <poly id="104041171" type="building.yes" color="255,230,230" fill="1" layer="-1.00" shape="288.95,241.24 292.63,243.11 293.61,241.19 300.47,244.66 295.56,254.33 285.01,249.01 288.95,241.24"/>
    <poly id="104041172" type="building.yes" color="255,230,230" fill="1" layer="-1.00" shape="295.73,202.95 314.47,213.09 308.98,223.05 292.57,213.90 295.73,202.95"/>
    <poly id="104041176" type="building.yes" color="255,230,230" fill="1" layer="-1.00" shape="253.44,232.55 262.31,215.87 269.92,218.69 264.75,228.47 260.58,236.24 253.44,232.55"/>
    <poly id="104041179" type="building.yes" color="255,230,230" fill="1" layer="-1.00" shape="296.70,235.01 293.65,233.48 293.03,234.74 284.48,230.50 286.07,227.21 289.57,220.32 308.06,229.50 303.61,238.43 296.70,235.01"/>
    <poly id="104041182" type="building.yes" color="255,230,230" fill="1" layer="-1.00" shape="293.61,241.19 296.70,235.01 303.61,238.43 300.47,244.66 293.61,241.19"/>
    <poly id="104041184" type="building.yes" color="255,230,230" fill="1" layer="-1.00" shape="288.95,241.24 286.74,240.13 287.39,238.87 284.41,237.34 283.75,238.63 281.43,237.45 277.50,245.08 285.01,249.01 288.95,241.24"/>
    <poly id="104041185" type="building.yes" color="255,230,230" fill="1" layer="-1.00" shape="248.44,230.02 239.98,225.59 244.93,216.20 252.63,220.23 253.54,220.71 252.14,223.39 253.07,223.87 251.32,227.20 250.23,226.62 248.44,230.02"/>
    <poly id="104041186" type="building.yes" color="255,230,230" fill="1" layer="-1.00" shape="239.55,201.93 240.06,200.66 244.68,203.01 244.03,204.18 249.62,207.22 248.66,209.11 244.93,216.20 234.68,210.76 239.55,201.93"/>
    <poly id="104041187" type="building.yes" color="255,230,230" fill="1" layer="-1.00" shape="221.70,203.64 226.45,195.04 230.21,197.10 230.94,195.78 235.28,198.16 234.68,199.26 239.55,201.93 234.68,210.76 221.70,203.64"/>
    <poly id="104041188" type="building.yes" color="255,230,230" fill="1" layer="-1.00" shape="270.95,230.15 268.16,228.65 267.47,229.94 264.75,228.47 260.58,236.24 268.76,240.60 272.96,232.78 270.29,231.37 270.95,230.15"/>
    <poly id="104041189" type="building.yes" color="255,230,230" fill="1" layer="-1.00" shape="245.90,201.28 251.30,204.06 257.16,192.26 251.33,190.78 245.90,201.28"/>
    <poly id="104041190" type="building.yes" color="255,230,230" fill="1" layer="-1.00" shape="248.66,209.11 256.92,212.85 252.63,220.23 244.93,216.20 248.66,209.11"/>
    <poly id="104041192" type="building.yes" color="255,230,230" fill="1" layer="-1.00" shape="269.40,195.34 275.77,196.95 272.75,209.39 270.47,208.85 270.04,210.60 265.94,209.61 269.40,195.34"/>
    <poly id="104041195" type="building.yes" color="255,230,230" fill="1" layer="-1.00" shape="257.16,192.26 269.40,195.34 265.94,209.61 265.51,210.96 260.11,209.63 261.30,204.94 257.11,203.88 255.88,208.76 254.68,208.45 254.53,209.24 250.34,208.07 251.30,204.06 257.16,192.26"/>
    <poly id="104045994" type="building.yes" color="255,230,230" fill="1" layer="-1.00" shape="252.77,243.30 260.03,247.14 256.05,254.59 248.81,250.76 252.77,243.30"/>
    <poly id="104045995" type="building.yes" color="255,230,230" fill="1" layer="-1.00" shape="213.07,277.74 222.38,259.85 232.34,264.88 223.28,282.91 213.07,277.74"/>
    <poly id="104045998" type="building.yes" color="255,230,230" fill="1" layer="-1.00" shape="178.32,293.43 183.91,280.80 194.84,286.14 190.43,294.81 178.32,293.43"/>
    <poly id="104046000" type="building.yes" color="255,230,230" fill="1" layer="-1.00" shape="206.17,274.66 204.02,273.48 207.10,267.92 212.75,271.02 209.68,276.60 206.17,274.66"/>
    <poly id="104046001" type="building.yes" color="255,230,230" fill="1" layer="-1.00" shape="271.93,253.07 277.59,255.97 273.00,264.83 271.55,267.63 265.90,264.73 267.85,260.97 271.93,253.07"/>
    <poly id="104046003" type="building.yes" color="255,230,230" fill="1" layer="-1.00" shape="198.54,251.01 209.94,256.58 207.73,261.07 209.00,261.70 206.32,267.14 204.85,266.42 202.32,271.55 191.13,266.09 198.54,251.01"/>
    <poly id="104046006" type="building.yes" color="255,230,230" fill="1" layer="-1.00" shape="285.69,277.86 282.38,284.34 279.02,290.91 290.62,296.80 295.21,297.18 300.97,286.89 296.24,284.49 292.53,291.75 287.14,289.02 291.37,280.74 285.69,277.86"/>
    <poly id="104046008" type="building.yes" color="255,230,230" fill="1" layer="-1.00" shape="191.13,266.09 183.91,280.80 194.84,286.14 197.17,281.41 199.12,282.36 201.73,277.05 200.03,276.23 202.32,271.55 191.13,266.09"/>
    <poly id="104046010" type="building.yes" color="255,230,230" fill="1" layer="-1.00" shape="264.92,249.45 271.93,253.07 267.85,260.97 260.83,257.35 264.92,249.45"/>
    <poly id="104046012" type="building.yes" color="255,230,230" fill="1" layer="-1.00" shape="234.90,234.10 249.46,242.00 244.59,250.94 239.22,248.04 237.16,251.81 227.96,246.83 230.64,241.92 234.90,234.10"/>
    <poly id="104046014" type="building.yes" color="255,230,230" fill="1" layer="-1.00" shape="227.96,246.83 224.60,245.19 227.05,240.18 230.64,241.92 227.96,246.83"/>
    <poly id="104046015" type="building.yes" color="255,230,230" fill="1" layer="-1.00" shape="232.34,264.88 235.98,267.26 223.22,297.18 194.76,295.38 194.95,291.01 195.92,291.05 206.11,291.79 206.14,290.45 219.00,291.43 223.28,282.91 232.34,264.88"/>
    <poly id="104046020" type="building.yes" color="255,230,230" fill="1" layer="-1.00" shape="279.02,290.91 264.83,283.59 271.67,270.53 276.21,272.90 272.83,279.37 282.38,284.34 279.02,290.91"/>
    <poly id="104046021" type="building.yes" color="255,230,230" fill="1" layer="-1.00" shape="245.66,257.22 239.85,269.20 239.06,270.81 246.87,274.58 245.03,278.38 254.56,282.97 256.29,279.38 252.06,277.35 258.60,263.66 245.66,257.22"/>
    <poly id="104046023" type="building.yes" color="255,230,230" fill="1" layer="-1.00" shape="277.59,255.97 292.62,263.72 289.38,269.99 288.04,272.57 273.00,264.83 277.59,255.97"/>
    <poly id="104046024" type="building.yes" color="255,230,230" fill="1" layer="-1.00" shape="258.60,263.66 260.85,259.53 263.55,260.99 261.30,265.12 258.60,263.66"/>
    <poly id="104046026" type="building.yes" color="255,230,230" fill="1" layer="-1.00" shape="306.26,276.50 316.47,281.45 311.32,292.03 300.97,286.89 306.26,276.50"/>
    <poly id="104046028" type="building.yes" color="255,230,230" fill="1" layer="-1.00" shape="292.62,263.72 299.47,267.24 296.19,273.56 294.72,272.80 293.34,275.46 290.07,273.78 291.47,271.07 289.38,269.99 292.62,263.72"/>
    <poly id="104046029" type="building.yes" color="255,230,230" fill="1" layer="-1.00" shape="296.24,284.49 301.64,273.65 302.55,274.10 304.86,269.44 308.80,271.38 306.26,276.50 300.97,286.89 296.24,284.49"/>
    <poly id="104046033" type="building.yes" color="255,230,230" fill="1" layer="-1.00" shape="207.80,231.29 203.29,239.92 205.92,241.29 205.53,242.04 209.89,244.30 210.30,243.52 213.17,245.01 217.67,236.41 207.80,231.29"/>
    <poly id="104148239" type="building.yes" color="255,230,230" fill="1" layer="-1.00" shape="137.87,212.90 145.42,202.39 150.46,205.99 151.02,205.21 153.68,207.11 147.90,215.16 144.63,212.82 142.30,216.07 137.87,212.90"/>
    <poly id="104148240" type="building.yes" color="255,230,230" fill="1" layer="-1.00" shape="131.93,215.23 129.66,217.98 122.62,213.21 125.59,208.91 133.26,213.41 131.93,215.23"/>
    <poly id="104148242" type="building.yes" color="255,230,230" fill="1" layer="-1.00" shape="120.17,176.32 125.44,180.09 118.64,189.54 113.34,185.74 118.57,178.61 120.17,176.32"/>
    <poly id="104148248" type="building.yes" color="255,230,230" fill="1" layer="-1.00" shape="146.92,242.06 134.80,234.64 129.02,244.00 138.06,249.53 141.16,251.42 146.92,242.06"/>
    <poly id="104148251" type="building.yes" color="255,230,230" fill="1" layer="-1.00" shape="132.94,257.86 138.06,249.53 141.16,251.42 135.47,260.68 132.37,258.78 132.94,257.86"/>
    <poly id="104148252" type="building.yes" color="255,230,230" fill="1" layer="-1.00" shape="189.26,250.84 190.97,243.20 179.19,237.04 175.61,244.21 180.43,246.72 183.94,247.91 189.26,250.84"/>
    <poly id="104148254" type="building.yes" color="255,230,230" fill="1" layer="-1.00" shape="155.62,183.14 162.08,187.66 157.83,193.70 154.21,191.17 151.31,195.30 148.47,193.32 155.62,183.14"/>
    <poly id="104148256" type="building.yes" color="255,230,230" fill="1" layer="-1.00" shape="128.70,164.13 118.98,157.36 115.43,162.44 118.15,164.32 111.56,173.74 118.57,178.61 120.17,176.32 122.50,173.00 128.70,164.13"/>
    <poly id="104148257" type="building.yes" color="255,230,230" fill="1" layer="-1.00" shape="105.93,198.25 108.03,195.27 92.18,184.17 83.79,196.22 95.92,204.37 92.14,209.96 101.14,216.02 100.39,217.11 102.78,218.72 103.58,217.53 111.06,222.55 110.29,223.69 113.93,226.15 122.62,213.21 125.59,208.91 120.28,206.07 110.01,200.61 105.93,198.25"/>
    <poly id="104148260" type="building.yes" color="255,230,230" fill="1" layer="-1.00" shape="134.57,270.90 139.22,263.23 142.00,264.91 143.51,262.43 147.26,264.67 145.79,267.10 148.50,268.74 143.80,276.47 134.57,270.90"/>
    <poly id="104148265" type="building.yes" color="255,230,230" fill="1" layer="-1.00" shape="198.60,228.69 186.82,222.54 179.19,237.04 190.97,243.20 198.60,228.69"/>
    <poly id="104148270" type="building.yes" color="255,230,230" fill="1" layer="-1.00" shape="114.68,259.67 120.27,250.59 126.01,254.12 125.60,254.78 128.71,256.68 129.35,255.65 132.94,257.86 132.37,258.78 135.47,260.68 130.23,269.19 114.68,259.67"/>
    <poly id="104148271" type="building.yes" color="255,230,230" fill="1" layer="-1.00" shape="110.01,200.61 115.41,192.87 125.36,199.28 120.28,206.07 110.01,200.61"/>
    <poly id="104148272" type="building.yes" color="255,230,230" fill="1" layer="-1.00" shape="167.67,268.73 175.60,272.83 184.50,259.96 178.12,256.47 167.67,268.73"/>
    <poly id="104148274" type="building.yes" color="255,230,230" fill="1" layer="-1.00" shape="163.78,244.70 168.31,237.59 171.75,239.76 167.22,246.89 163.78,244.70"/>
    <poly id="104148283" type="building.yes" color="255,230,230" fill="1" layer="-1.00" shape="142.33,173.86 155.62,183.14 148.47,193.32 142.18,202.27 133.38,196.12 137.53,190.22 139.02,191.27 140.39,189.32 134.42,185.14 135.31,183.86 142.33,173.86"/>
    <poly id="104148284" type="building.yes" color="255,230,230" fill="1" layer="-1.00" shape="128.70,164.13 142.33,173.86 135.31,183.86 126.03,177.28 126.87,176.10 122.50,173.00 128.70,164.13"/>
    <poly id="104148284#1" type="shop.optician" color="237,199,255" fill="1" layer="-1.00" shape="128.70,164.13 142.33,173.86 135.31,183.86 126.03,177.28 126.87,176.10 122.50,173.00 128.70,164.13"/>
    <poly id="104148292" type="building.yes" color="255,230,230" fill="1" layer="-1.00" shape="146.92,242.06 160.25,250.01 154.38,259.53 141.16,251.42 146.92,242.06"/>
    <poly id="104148294" type="building.yes" color="255,230,230" fill="1" layer="-1.00" shape="117.10,225.31 125.72,231.04 130.27,234.07 124.42,242.83 120.02,239.91 117.95,243.01 114.77,240.89 116.84,237.79 111.24,234.07 117.10,225.31"/>