<?xml version="1.0" encoding="UTF-8"?>
<!-- generated on 2020-06-13 23:23:06.647105 by $Id$
  options: 
-->
<routes xmlns:xsi="http://www.w3.org/2001/XMLSchema-instance" xsi:noNamespaceSchemaLocation="http://sumo.dlr.de/xsd/routes_file.xsd">
    <vType id="pedestrian" vClass="pedestrian" speedDev="0.1"/>
    <person id="ped0" depart="0.00">
        <personTrip from="42368105#4" to="-301592628#0" modes="public"/>
    </person>
    <person id="ped1" depart="56.90">
        <personTrip from="139015309#6" to="139015309#1" modes="public"/>
    </person>
    <person id="ped2" depart="113.80">
        <personTrip from="44894860" to="440834743#0" modes="public"/>
    </person>
    <person id="ped3" depart="170.70">
        <personTrip from="539419583#6" to="100657350#12" modes="public"/>
    </person>
    <person id="ped4" depart="227.60">
        <personTrip from="40739235" to="-42368106#0" modes="public"/>
    </person>
    <person id="ped5" depart="284.51">
        <personTrip from="139015309#0" to="42368101#2" modes="public"/>
    </person>
    <person id="ped6" depart="341.41">
        <personTrip from="-301592628#0" to="139015291" modes="public"/>
    </person>
    <person id="ped7" depart="398.31">
        <personTrip from="42368106#0" to="42368103#1" modes="public"/>
    </person>
    <person id="ped8" depart="455.21">
        <personTrip from="139015309#0" to="42368104#3" modes="public"/>
    </person>
    <person id="ped9" depart="512.11">
        <personTrip from="539419579" to="-139015293" modes="public"/>
    </person>
    <person id="ped10" depart="569.01">
        <personTrip from="534884348" to="440834743#2" modes="public"/>
    </person>
    <person id="ped11" depart="625.91">
        <personTrip from="301592616" to="100657350#8" modes="public"/>
    </person>
    <person id="ped12" depart="682.81">
        <personTrip from="64942958" to="301592616" modes="public"/>
    </person>
    <person id="ped13" depart="739.71">
        <personTrip from="100657350#12" to="100657350#2" modes="public"/>
    </person>
    <person id="ped14" depart="796.62">
        <personTrip from="539419583#2" to="42368105#0" modes="public"/>
    </person>
    <person id="ped15" depart="853.52">
        <personTrip from="534884348" to="44885153#1" modes="public"/>
    </person>
    <person id="ped16" depart="910.42">
        <personTrip from="42368103#0" to="97381230" modes="public"/>
    </person>
    <person id="ped17" depart="967.32">
        <personTrip from="301780867#2" to="42368103#2" modes="public"/>
    </person>
    <person id="ped18" depart="1024.22">
        <personTrip from="539419583#0" to="42368105#2" modes="public"/>
    </person>
    <person id="ped19" depart="1081.12">
        <personTrip from="539419583#3" to="42368104#2" modes="public"/>
    </person>
    <person id="ped20" depart="1138.02">
        <personTrip from="440834743#3" to="-4702468#0" modes="public"/>
    </person>
    <person id="ped21" depart="1194.92">
        <personTrip from="139015309#1" to="139110194#0" modes="public"/>
    </person>
    <person id="ped22" depart="1251.82">
        <personTrip from="100657350#11" to="139015309#2" modes="public"/>
    </person>
    <person id="ped23" depart="1308.72">
        <personTrip from="100657350#2" to="139015309#6" modes="public"/>
    </person>
    <person id="ped24" depart="1365.63">
        <personTrip from="42368105#4" to="301592628#1" modes="public"/>
    </person>
    <person id="ped25" depart="1422.53">
        <personTrip from="301780867#0" to="139015293" modes="public"/>
    </person>
    <person id="ped26" depart="1479.43">
        <personTrip from="139015309#5" to="604400711#0" modes="public"/>
    </person>
    <person id="ped27" depart="1536.33">
        <personTrip from="42368106#0" to="42368105#1" modes="public"/>
    </person>
    <person id="ped28" depart="1593.23">
        <personTrip from="100657350#9" to="44885153#1" modes="public"/>
    </person>
    <person id="ped29" depart="1650.13">
        <personTrip from="100657350#8" to="301780867#2" modes="public"/>
    </person>
    <person id="ped30" depart="1707.03">
        <personTrip from="97381231#0" to="42368105#4" modes="public"/>
    </person>
    <person id="ped31" depart="1763.93">
        <personTrip from="42368103#2" to="440834743#1" modes="public"/>
    </person>
    <person id="ped32" depart="1820.83">
        <personTrip from="539419583#1" to="47986354#2" modes="public"/>
    </person>
    <person id="ped33" depart="1877.74">
        <personTrip from="139015309#1" to="-42368106#0" modes="public"/>
    </person>
    <person id="ped34" depart="1934.64">
        <personTrip from="139110194#2" to="139015309#5" modes="public"/>
    </person>
    <person id="ped35" depart="1991.54">
        <personTrip from="139015293" to="604400711#1" modes="public"/>
    </person>
    <person id="ped36" depart="2048.44">
        <personTrip from="539419583#5" to="139110194#2" modes="public"/>
    </person>
    <person id="ped37" depart="2105.34">
        <personTrip from="42368106#1" to="302654040" modes="public"/>
    </person>
    <person id="ped38" depart="2162.24">
        <personTrip from="540412987" to="42367703#0" modes="public"/>
    </person>
    <person id="ped39" depart="2219.14">
        <personTrip from="139015309#5" to="139015309#3" modes="public"/>
    </person>
    <person id="ped40" depart="2276.04">
        <personTrip from="42368104#0" to="139015309#5" modes="public"/>
    </person>
    <person id="ped41" depart="2332.94">
        <personTrip from="42368104#2" to="539419583#7" modes="public"/>
    </person>
    <person id="ped42" depart="2389.85">
        <personTrip from="302654040" to="139015309#0" modes="public"/>
    </person>
    <person id="ped43" depart="2446.75">
        <personTrip from="97381231#1" to="42368101#2" modes="public"/>
    </person>
    <person id="ped44" depart="2503.65">
        <personTrip from="100657350#12" to="-4702468#0" modes="public"/>
    </person>
    <person id="ped45" depart="2560.55">
        <personTrip from="100657350#3" to="42368105#3" modes="public"/>
    </person>
    <person id="ped46" depart="2617.45">
        <personTrip from="534884347" to="40739235" modes="public"/>
    </person>
    <person id="ped47" depart="2674.35">
        <personTrip from="100657350#1" to="301780867#2" modes="public"/>
    </person>
    <person id="ped48" depart="2731.25">
        <personTrip from="97381231#1" to="42368103#0" modes="public"/>
    </person>
    <person id="ped49" depart="2788.15">
        <personTrip from="97381228" to="539419583#3" modes="public"/>
    </person>
    <person id="ped50" depart="2845.05">
        <personTrip from="-301592609" to="44885153#0" modes="public"/>
    </person>
    <person id="ped51" depart="2901.95">
        <personTrip from="440834743#0" to="42368103#0" modes="public"/>
    </person>
    <person id="ped52" depart="2958.86">
        <personTrip from="139015309#5" to="42368105#4" modes="public"/>
    </person>
    <person id="ped53" depart="3015.76">
        <personTrip from="100657350#3" to="40739239#1" modes="public"/>
    </person>
    <person id="ped54" depart="3072.66">
        <personTrip from="42367703#0" to="64942958" modes="public"/>
    </person>
    <person id="ped55" depart="3129.56">
        <personTrip from="539419583#5" to="139015309#5" modes="public"/>
    </person>
    <person id="ped56" depart="3186.46">
        <personTrip from="42368101#2" to="101325123#0" modes="public"/>
    </person>
    <person id="ped57" depart="3243.36">
        <personTrip from="539419584" to="539419583#4" modes="public"/>
    </person>
    <person id="ped58" depart="3300.26">
        <personTrip from="139110194#1" to="42368105#4" modes="public"/>
    </person>
    <person id="ped59" depart="3357.16">
        <personTrip from="42368105#1" to="100657350#7" modes="public"/>
    </person>
    <person id="ped60" depart="3414.06">
        <personTrip from="47986354#1" to="42368103#1" modes="public"/>
    </person>
    <person id="ped61" depart="3470.97">
        <personTrip from="47986354#2" to="42368103#0" modes="public"/>
    </person>
    <person id="ped62" depart="3527.87">
        <personTrip from="-139015293" to="301592608" modes="public"/>
    </person>
    <person id="ped63" depart="3584.77">
        <personTrip from="-301592628#0" to="604400710" modes="public"/>
    </person>
</routes>
