<?xml version="1.0" encoding="UTF-8"?>
<!-- generated on 2020-06-13 23:23:06.453387 by $Id$ via randomTrips.py
  options: 
-->
<routes xmlns:xsi="http://www.w3.org/2001/XMLSchema-instance" xsi:noNamespaceSchemaLocation="http://sumo.dlr.de/xsd/routes_file.xsd">
    <vType id="motorcycle" speedFactor="normc(1.00,0.10,0.20,2.00)" vClass="motorcycle">
    </vType>
    <trip id="moto6" depart="1088.35" departLane="best" from="101325123#0" to="301592616" type="motorcycle"/>
    <trip id="moto15" depart="2720.89" departLane="best" from="440834743#2" to="42368106#0" type="motorcycle"/>
</routes>
