<?xml version="1.0" encoding="UTF-8"?>

<!-- generated on 06/13/20 23:23:05 by SUMO polyconvert Version 0.32.0
<?xml version="1.0" encoding="UTF-8"?>

<configuration xmlns:xsi="http://www.w3.org/2001/XMLSchema-instance" xsi:noNamespaceSchemaLocation="http://sumo.dlr.de/xsd/polyconvertConfiguration.xsd">

    <input>
        <net-file value="C:\Users\JTech%20Global\Sumo\2020-06-13-23-22-59\osm.net.xml"/>
        <osm-files value="osm_bbox.osm.xml"/>
        <osm.keep-full-type value="true"/>
        <type-file value="C:\Program%20Files%20(x86)\DLR\Sumo\data\typemap\osmPolyconvert.typ.xml"/>
    </input>

    <output>
        <output-file value="C:\Users\JTech%20Global\Sumo\2020-06-13-23-22-59\osm.poly.xml"/>
    </output>

    <processing>
        <poi-layer-offset value="5"/>
    </processing>

    <report>
        <verbose value="true"/>
    </report>

</configuration>
-->

<additional xmlns:xsi="http://www.w3.org/2001/XMLSchema-instance" xsi:noNamespaceSchemaLocation="http://sumo.dlr.de/xsd/additional_file.xsd">
    <location netOffset="-475090.23,-5550587.92" convBoundary="-582.62,-708.02,1958.65,2307.25" origBoundary="8.643486,50.100679,8.678969,50.127833" projParameter="+proj=utm +zone=32 +ellps=WGS84 +datum=WGS84 +units=m +no_defs"/>

    <poly id="100657351" type="building.yes" color="255,230,230" fill="1" layer="-1.00" shape="589.88,221.59 594.13,223.93 599.55,226.92 606.00,215.54 607.60,212.72 598.11,207.36 596.46,210.53 589.88,221.59"/>
    <poly id="100657353" type="building.yes" color="255,230,230" fill="1" layer="-1.00" shape="686.34,214.14 679.16,203.61 675.90,205.82 672.73,201.17 658.78,210.63 666.65,222.17 672.22,218.39 674.69,222.03 686.34,214.14"/>
    <poly id="100657358" type="building.yes" color="255,230,230" fill="1" layer="-1.00" shape="607.47,231.38 623.12,240.21 630.24,227.66 649.20,194.21 635.23,186.35 623.56,206.93 621.87,205.98 613.92,220.00 607.47,231.38"/>
    <poly id="100657369" type="building.yes" color="255,230,230" fill="1" layer="-1.00" shape="666.65,222.17 658.78,210.63 656.98,207.69 650.66,212.00 652.94,215.33 631.57,228.72 630.24,227.66 623.12,240.21 631.96,245.79 666.65,222.17"/>
    <poly id="100657369#1" type="tourism.hotel" color="207,245,201" fill="1" layer="-2.00" shape="666.65,222.17 658.78,210.63 656.98,207.69 650.66,212.00 652.94,215.33 631.57,228.72 630.24,227.66 623.12,240.21 631.96,245.79 666.65,222.17"/>
    <poly id="100657386" type="building.yes" color="255,230,230" fill="1" layer="-1.00" shape="599.55,226.92 607.47,231.38 613.92,220.00 606.00,215.54 599.55,226.92"/>
    <poly id="100657387" type="building.yes" color="255,230,230" fill="1" layer="-1.00" shape="729.55,237.50 732.45,241.48 728.60,244.34 725.70,240.25 719.50,244.44 711.91,233.28 721.79,226.31 729.55,237.50"/>
    <poly id="100657425" type="building.yes" color="255,230,230" fill="1" layer="-1.00" shape="531.21,221.20 554.52,235.01 544.73,251.57 535.07,245.89 539.85,237.81 535.99,235.54 531.23,243.57 521.41,237.80 526.96,228.45 531.21,221.20"/>
    <poly id="100657434" type="building.yes" color="255,230,230" fill="1" layer="-1.00" shape="701.21,240.63 690.59,248.09 696.92,257.10 699.30,255.43 701.40,253.96 702.70,255.81 708.84,251.51 701.21,240.63"/>
    <poly id="100657452" type="building.yes" color="255,230,230" fill="1" layer="-1.00" shape="739.19,229.05 734.06,232.59 734.95,233.73 729.55,237.50 721.79,226.31 732.51,219.13 739.19,229.05"/>
    <poly id="100657463" type="building.yes" color="255,230,230" fill="1" layer="-1.00" shape="596.46,210.53 592.53,208.21 596.74,201.11 591.50,198.01 580.71,216.16 589.88,221.59 596.46,210.53"/>
    <poly id="100657484" type="building.yes" color="255,230,230" fill="1" layer="-1.00" shape="719.50,244.44 708.84,251.51 701.21,240.63 711.91,233.28 719.50,244.44"/>
    <poly id="100657484#1" type="tourism.hotel" color="207,245,201" fill="1" layer="-2.00" shape="719.50,244.44 708.84,251.51 701.21,240.63 711.91,233.28 719.50,244.44"/>
    <poly id="139015312" type="leisure.park" color="207,245,201" fill="1" layer="-2.00" shape="649.88,315.92 648.08,317.14 647.13,313.60 648.55,312.42 650.85,311.68 657.85,313.12 672.84,317.74 685.15,323.91 717.52,343.80 721.22,347.82 719.88,350.55 713.65,343.99 671.86,321.44 658.86,317.76 649.88,315.92"/>
    <poly id="139015313" type="natural.water" color="181,209,209" fill="1" layer="-4.00" shape="598.24,331.60 600.78,330.16 603.85,329.04 607.13,328.38 610.96,328.16 614.21,328.38 618.00,329.13 620.21,329.85 621.62,331.79 622.06,333.38 621.95,334.88 615.56,348.96 617.05,351.25 619.95,351.86 621.79,353.17 626.23,347.31 637.05,336.81 639.37,330.38 636.05,329.71 634.58,328.04 633.62,326.41 633.65,323.79 636.33,321.16 637.94,319.20 636.43,316.86 635.27,315.26 633.77,314.32 631.84,315.42 630.68,317.54 629.65,320.32 626.39,322.22 623.49,323.79 621.31,323.95 619.08,322.56 618.06,320.48 613.11,321.10 609.47,322.73 605.69,324.57 602.63,326.01 596.63,329.97 597.16,331.15 598.24,331.60"/>
    <poly id="172256528" type="building.construction" color="255,230,230" fill="1" layer="-1.00" shape="577.45,287.00 589.72,278.75 584.40,270.90 575.63,276.79 572.14,279.15 577.45,287.00"/>
    <poly id="172256529" type="building.yes" color="255,230,230" fill="1" layer="-1.00" shape="555.09,290.61 544.05,274.28 525.91,286.48 492.32,236.82 452.30,263.75 497.08,329.95 491.63,333.61 489.68,330.71 484.10,334.45 491.24,345.01 577.45,287.00 572.14,279.15 555.09,290.61"/>
    <poly id="172256529#1" type="historic.building" color="128,255,128" fill="1" layer="-1.00" shape="555.09,290.61 544.05,274.28 525.91,286.48 492.32,236.82 452.30,263.75 497.08,329.95 491.63,333.61 489.68,330.71 484.10,334.45 491.24,345.01 577.45,287.00 572.14,279.15 555.09,290.61"/>
    <poly id="172256530" type="building.construction" color="255,230,230" fill="1" layer="-1.00" shape="575.63,276.79 584.40,270.90 588.39,268.34 580.23,256.10 567.47,264.56 575.63,276.79"/>
    <poly id="174457135" type="building.yes" color="255,230,230" fill="1" layer="-1.00" shape="736.24,235.39 734.95,233.73 729.55,237.50 732.45,241.48 756.38,254.97 765.76,238.31 755.72,232.45 752.03,239.02 749.17,237.41 746.90,241.45 743.23,239.42 736.24,235.39"/>
    <poly id="174457156" type="building.yes" color="255,230,230" fill="1" layer="-1.00" shape="742.84,285.33 739.71,291.83 738.60,294.13 739.23,294.51 737.22,298.94 733.98,306.07 706.96,289.71 705.60,290.08 703.86,289.63 702.80,288.49 702.80,287.14 703.33,286.08 704.69,285.55 706.35,285.92 704.64,283.64 713.12,268.22 717.49,260.61 728.69,266.89 729.29,267.46 724.82,274.65 742.84,285.33"/>
    <poly id="174457186" type="building.yes" color="255,230,230" fill="1" layer="-1.00" shape="713.29,258.25 703.81,261.37 699.30,255.43 701.40,253.96 702.70,255.81 708.84,251.51 713.29,258.25"/>
    <poly id="174457188" type="building.yes" color="255,230,230" fill="1" layer="-1.00" shape="713.29,258.25 717.49,260.61 728.69,266.89 734.58,256.39 723.41,250.13 719.50,244.44 708.84,251.51 713.29,258.25"/>
    <poly id="174457201" type="building.yes" color="255,230,230" fill="1" layer="-1.00" shape="732.45,241.48 756.38,254.97 759.89,256.60 757.57,260.55 753.32,258.80 751.92,261.13 726.85,247.57 728.60,244.34 732.45,241.48"/>
    <poly id="298489306" type="building.yes" color="255,230,230" fill="1" layer="-1.00" shape="563.02,259.18 567.47,264.56 580.23,256.10 573.59,247.73 570.71,245.43 559.28,237.98 551.20,250.30 559.39,255.63 563.02,259.18"/>
    <poly id="30376173" type="landuse.residential" color="235,235,227" fill="1" layer="-3.00" shape="525.07,365.82 530.79,357.08 566.05,332.84 627.58,290.87 633.77,285.75 660.55,263.77 1067.04,535.77 1126.25,592.17 1154.23,620.30 1189.36,657.98 1195.43,663.66 1205.14,673.53 1215.25,681.48 1260.72,721.28 1280.22,740.28 1301.02,762.10 1322.84,783.00 1326.98,787.75 1350.91,819.74 1368.86,855.13 1380.70,881.01 1385.65,895.00 1388.48,906.86 1391.88,914.88 1423.82,999.75 1396.59,1009.60 1397.83,1064.00 1404.03,1066.41 1445.12,1066.74 1460.81,1062.95 1531.45,1066.74 1596.75,1074.45 1632.11,1082.45 1660.28,1097.43 1693.60,1128.38 1720.57,1158.05 1767.26,1214.40 1775.89,1218.67 1785.10,1218.63 1863.97,1179.44 1888.92,1172.71 1916.06,1174.48 1944.63,1184.17 1958.65,1172.69 1872.76,1380.60 1858.38,1395.21 1829.64,1420.36 1804.38,1437.10 1772.10,1456.18 1765.54,1468.66 1752.24,1488.89 1733.42,1506.56 1713.40,1519.70 1707.94,1540.34 1709.98,1575.28 1718.74,1760.46 1718.34,1765.11 1705.94,1793.94 1631.24,2095.83 1546.51,2230.15 1521.35,2307.25 1433.43,2191.99 1417.95,2157.68 1402.24,2108.07 1337.63,1910.77 1211.35,1909.71 1133.97,1893.25 1119.11,1890.70 1103.97,1881.65 983.98,1858.18 942.42,1998.77 914.11,2094.54 900.57,2134.99 878.38,2128.91 861.06,2125.62 865.66,2095.33 830.06,2084.75 885.88,1858.60 722.43,1824.33 611.43,1825.80 609.47,1795.18 485.33,1797.91 477.26,1835.11 526.94,1851.04 520.26,1890.74 522.48,1929.44 471.68,1917.53 453.04,1912.84 479.62,1796.08 497.68,1719.05 522.56,1614.56 537.11,1553.76 427.82,1530.20 415.55,1530.39 409.47,1530.46 409.46,1529.08 403.24,1529.17 351.32,1529.53 321.74,1530.53 307.45,1534.08 300.41,1589.59 269.52,1585.99 266.67,1584.52 261.76,1580.52 257.73,1578.16 253.50,1576.36 249.37,1575.81 244.58,1576.11 240.85,1576.70 237.21,1578.63 232.91,1580.86 228.61,1581.22 152.32,1572.33 156.56,1457.10 135.48,1380.37 83.26,1215.60 31.00,1033.18 -12.57,850.22 -27.87,819.48 -21.81,809.58 -21.43,805.01 -1.73,810.55 16.63,811.87 43.36,808.26 63.20,801.32 102.66,762.84 109.12,751.88 123.81,732.11 133.10,721.05 149.70,701.78 178.98,670.24 222.32,633.51 245.14,613.32 259.25,600.56 296.41,567.25 319.78,545.72 364.08,506.33 384.37,487.68 396.22,475.76 399.49,470.72 419.72,461.21 416.04,454.25 525.07,365.82"/>
    <poly id="30376408" type="landuse.residential" color="235,235,227" fill="1" layer="-3.00" shape="776.56,-629.78 1134.96,-439.12 1205.53,-383.47 1327.35,-269.83 1558.77,-58.18 1539.75,24.70 1517.46,104.09 1513.49,114.25 1360.70,405.80 1335.11,459.66 1301.15,519.71 1242.56,608.41 1215.25,681.48 1205.14,673.53 1195.43,663.66 1189.36,657.98 1154.23,620.30 1126.25,592.17 1067.04,535.77 660.55,263.77 830.31,139.70 874.01,138.71 903.83,121.89 914.89,114.70 925.43,106.76 936.56,96.93 948.00,83.71 955.55,73.50 968.45,49.25 990.09,-23.93 981.26,-100.83 821.97,-196.77 867.10,-269.83 758.59,-334.27 726.03,-283.39 698.67,-299.23 729.33,-362.03 732.57,-367.40 740.25,-380.25 773.81,-449.45 688.59,-511.96 627.61,-559.61 571.50,-600.50 635.81,-708.02 776.56,-629.78"/>
    <poly id="42367695" type="building.yes" color="255,230,230" fill="1" layer="-1.00" shape="712.37,348.19 709.67,354.64 732.33,364.07 705.23,428.83 682.58,419.41 704.35,367.36 659.15,348.57 654.98,358.54 649.45,356.38 646.87,355.37 640.93,353.05 631.88,349.51 627.69,347.89 626.23,347.31 637.05,336.81 639.37,330.38 643.18,329.98 652.66,323.35 712.37,348.19"/>
    <poly id="42367713" type="building.yes" color="255,230,230" fill="1" layer="-1.00" shape="689.06,262.38 696.92,257.10 699.30,255.43 703.81,261.37 705.45,263.52 713.12,268.22 704.64,283.64 689.06,262.38"/>
    <poly id="44894866" type="building.yes" color="255,230,230" fill="1" layer="-1.00" shape="512.09,224.79 518.55,213.80 531.21,221.20 526.96,228.45 524.63,227.08 520.03,234.91 509.70,228.86 512.09,224.79"/>
    <poly id="44895544" type="building.yes" color="255,230,230" fill="1" layer="-1.00" shape="536.96,302.81 545.64,296.97 540.25,289.01 531.57,294.85 536.96,302.81"/>
    <poly id="44895544#1" type="historic.building" color="128,255,128" fill="1" layer="-1.00" shape="536.96,302.81 545.64,296.97 540.25,289.01 531.57,294.85 536.96,302.81"/>
    <poly id="63310741" type="landuse.railway" color="194,194,130" fill="1" layer="-3.00" shape="34.83,684.96 50.25,683.32 72.29,667.94 110.06,641.71 129.87,628.30 145.92,619.14 158.23,611.71 169.76,604.00 180.48,596.59 182.27,598.67 214.25,576.37 212.50,574.07 272.54,532.82 276.79,528.95 392.80,448.23 412.51,434.93 413.98,437.15 443.86,416.47 442.49,414.47 496.25,377.81 519.81,363.67 530.79,357.08 566.05,332.84 627.58,290.87 633.77,285.75 624.48,280.51 599.55,299.94 561.80,326.85 527.25,350.40 492.77,371.89 465.96,390.12 441.97,405.86 437.32,407.80 410.90,426.04 394.30,440.05 381.65,448.17 355.62,465.92 330.57,484.65 279.00,520.57 238.73,548.52 212.34,566.36 211.26,565.28 175.73,590.03 177.06,591.72 154.78,606.36 139.21,615.28 125.00,623.84 107.04,636.26 101.06,640.04 93.54,645.61 87.54,649.52 34.83,684.96"/>
    <poly id="76821868" type="landuse.grass" color="194,194,130" fill="1" layer="-3.00" shape="613.62,315.36 617.82,313.76 622.35,312.13 625.69,311.28 626.13,311.83 626.51,312.79 619.99,319.07 621.02,319.95 629.44,312.61 631.70,311.30 633.84,310.99 636.84,311.35 638.99,315.19 638.63,317.54 637.94,319.20 636.43,316.86 635.27,315.26 633.77,314.32 631.84,315.42 630.68,317.54 629.65,320.32 626.39,322.22 623.49,323.79 621.31,323.95 619.08,322.56 618.06,320.48 613.11,321.10 609.47,322.73 605.69,324.57 602.63,326.01 596.63,329.97 597.16,331.15 598.24,331.60 596.19,332.47 594.50,331.90 593.06,330.31 592.32,326.81 613.62,315.36"/>
    <poly id="76821932" type="natural.water" color="181,209,209" fill="1" layer="-4.00" shape="719.88,350.55 713.65,343.99 671.86,321.44 658.86,317.76 649.88,315.92 648.08,317.14 648.87,319.08 650.28,320.35 656.07,322.73 709.68,344.20 709.04,346.39 716.06,349.06 714.82,352.35 718.67,353.60 719.88,350.55"/>
    <poly id="76822316" type="leisure.common" color="207,245,201" fill="1" layer="-2.00" shape="568.30,340.94 549.55,354.23 526.93,370.69 612.65,403.73 640.93,353.05 631.88,349.51 627.69,347.89 626.23,347.31 621.79,353.17 619.95,351.86 617.05,351.25 615.56,348.96 621.95,334.88 626.08,332.26 631.48,329.29 636.05,329.71 639.37,330.38 643.18,329.98 652.66,323.35 650.28,320.35 649.55,318.51 648.08,317.14 647.13,313.60 644.01,309.35 636.84,311.35 638.99,315.19 638.63,317.54 637.94,319.20 636.43,316.86 635.27,315.26 633.77,314.32 631.84,315.42 630.68,317.54 629.65,320.32 626.39,322.22 623.49,323.79 621.31,323.95 619.08,322.56 618.06,320.48 613.11,321.10 609.47,322.73 605.69,324.57 602.63,326.01 596.63,329.97 597.16,331.15 598.24,331.60 596.19,332.47 594.50,331.90 593.06,330.31 592.32,326.81 568.30,340.94"/>
    <poi id="1143923485" type="amenity.restaurant" color="237,199,199" layer="4.00" x="666.71" y="218.01"/>
    <poi id="2193241757" type="tourism.hostel" color="207,245,201" layer="3.00" x="691.16" y="263.13"/>
    <poi id="3048419124" type="amenity.restaurant" color="237,199,199" layer="4.00" x="696.54" y="248.16"/>
    <poi id="3121873655" type="tourism.hotel" color="207,245,201" layer="3.00" x="570.04" y="254.75"/>
    <poi id="4259804268" type="amenity.bicycle_rental" color="237,199,199" layer="4.00" x="684.11" y="282.59"/>
    <poi id="4838662222" type="amenity.atm" color="237,199,199" layer="4.00" x="710.36" y="292.13"/>
    <poi id="4838662223" type="amenity.atm" color="237,199,199" layer="4.00" x="702.57" y="239.80"/>
    <poi id="554155976" type="shop.bakery" color="237,199,255" layer="4.00" x="638.47" y="233.17"/>
    <poi id="569055468" type="amenity.fountain" color="237,199,199" layer="4.00" x="621.94" y="319.17"/>
    <poi id="5986404377" type="amenity.restaurant" color="237,199,199" layer="4.00" x="582.53" y="266.65"/>
    <poi id="630736257" type="amenity.restaurant" color="237,199,199" layer="4.00" x="706.92" y="273.02"/>
    <poi id="6871165442" type="amenity.restaurant" color="237,199,199" layer="4.00" x="653.49" y="227.34"/>
    <poi id="7436059095" type="amenity.social_facility" color="237,199,199" layer="4.00" x="594.13" y="223.93"/>
    <poi id="928989166" type="amenity.restaurant" color="237,199,199" layer="4.00" x="696.18" y="271.15"/>
</additional>
