<?xml version="1.0" encoding="UTF-8"?>

<!-- generated on 06/13/20 23:23:06 by SUMO duarouter Version 0.32.0
<?xml version="1.0" encoding="UTF-8"?>

<configuration xmlns:xsi="http://www.w3.org/2001/XMLSchema-instance" xsi:noNamespaceSchemaLocation="http://sumo.dlr.de/xsd/duarouterConfiguration.xsd">

    <input>
        <net-file value="osm.net.xml"/>
        <additional-files value="osm_stops.add.xml,osm_pt.rou.xml"/>
        <route-files value="osm.pedestrian.trips.xml"/>
    </input>

    <output>
        <output-file value="osm.pedestrian.rou.xml"/>
        <alternatives-output value="osm.pedestrian.rou.alt.xml"/>
    </output>

    <processing>
        <ignore-errors value="true"/>
    </processing>

    <time>
        <begin value="0"/>
        <end value="3600.0"/>
    </time>

    <report>
        <no-warnings value="true"/>
        <no-step-log value="true"/>
    </report>

</configuration>
-->

<routes xmlns:xsi="http://www.w3.org/2001/XMLSchema-instance" xsi:noNamespaceSchemaLocation="http://sumo.dlr.de/xsd/routes_file.xsd">
    <person id="ped0" depart="0.00">
        <walk edges="42368105#4 42367702 97381230 97381231#1 97381231#0 -301592628#0"/>
    </person>
    <person id="ped1" depart="56.90">
        <walk edges="139015309#6 47986354#2 47986354#3 440834742 440834743#3 139015309#3 139015309#2 139015309#1"/>
    </person>
    <person id="ped2" depart="113.80">
        <walk edges="44894860 97381231#1 139015309#0 139015309#1 139015309#2 139015309#3 440834743#2 440834743#1 440834743#0"/>
    </person>
    <person id="ped3" depart="170.70">
        <walk edges="539419583#6 301592616 42367703#0 42367703#1" busStop="117091092"/>
        <walk edges="604400710 100657350#12"/>
    </person>
    <person id="ped4" depart="227.60">
        <walk edges="40739235 97381228 44894860 -42368106#0"/>
    </person>
    <person id="ped5" depart="284.51">
        <walk edges="139015309#0 42368102#0 42367702 302654040 302654043" busStop="117091092"/>
        <walk edges="42367703#1 42367703#0 42368101#2"/>
    </person>
    <person id="ped6" depart="341.41">
        <walk edges="-301592628#0 97381231#0 97381231#1 44894860 100657350#12 604400710" busStop="117091092"/>
        <walk edges="42367703#1 42367703#0 301592616 139015291"/>
    </person>
    <person id="ped7" depart="398.31">
        <walk edges="42368106#0 42367702 42368103#0 42368103#1"/>
    </person>
    <person id="ped8" depart="455.21">
        <walk edges="139015309#0 139015309#1 139015309#2 139015309#3 440834743#3 440834742 42368104#0 42368104#1 42368104#2 42368104#3"/>
    </person>
    <person id="ped9" depart="512.11">
        <walk edges="539419579" busStop="761117290"/>
        <walk edges="604400710 100657350#12 44894860 97381231#1 97381231#0 -301592628#0 -139015293"/>
    </person>
    <person id="ped10" depart="569.01">
        <walk edges="534884348" busStop="117091092"/>
        <walk edges="302654043 302654040 42367702 42368102#0 139015309#1 139015309#2 139015309#3 440834743#2"/>
    </person>
    <person id="ped11" depart="625.91">
        <walk edges="301592616 42367703#0 100657350#4 100657350#5 100657350#6 100657350#7 100657350#8"/>
    </person>
    <person id="ped12" depart="682.81">
        <walk edges="64942958 42368102#1 42368102#0 42367702 302654040 302654043" busStop="117091092"/>
        <walk edges="42367703#1 42367703#0 301592616"/>
    </person>
    <person id="ped13" depart="739.71">
        <walk edges="100657350#12 604400710" busStop="117091092"/>
        <walk edges="42367703#1 100657350#3 100657350#2"/>
    </person>
    <person id="ped14" depart="796.62">
        <walk edges="539419583#2 539419583#3 539419583#4 539419583#5 539419583#6 301592616 42368105#0"/>
    </person>
    <person id="ped15" depart="853.52">
        <walk edges="534884348" busStop="117091092"/>
        <walk edges="604400710 100657350#12 44894860 97381231#1 97381231#0 44885153#0 44885153#1"/>
    </person>
    <person id="ped16" depart="910.42">
        <walk edges="42368103#0 97381230"/>
    </person>
    <person id="ped17" depart="967.32">
        <walk edges="301780867#2 539419584 539419583#0 539419583#1 539419583#2 42368104#1 42368104#0 440834742 42368103#2"/>
    </person>
    <person id="ped18" depart="1024.22">
        <walk edges="539419583#0 539419583#1 539419583#2 539419583#3 539419583#4 539419583#5 539419583#6 301592616 42368105#0 42368105#1 42368105#2"/>
    </person>
    <person id="ped19" depart="1081.12">
        <walk edges="539419583#3 42368104#2"/>
    </person>
    <person id="ped20" depart="1138.02">
        <walk edges="440834743#3 440834742 42368104#0 42368104#1 539419583#3 539419583#4 539419583#5 539419583#6 139015291 -4702468#0"/>
    </person>
    <person id="ped21" depart="1194.92">
        <walk edges="139015309#1 139015309#2 139015309#3 440834743#3 139110194#0"/>
    </person>
    <person id="ped22" depart="1251.82">
        <walk edges="100657350#11 302654040 42367702 42368102#0 139015309#1 139015309#2"/>
    </person>
    <person id="ped23" depart="1308.72">
        <walk edges="100657350#2 539419583#7 539419583#6 539419583#5 539419583#4 539419583#3 42368104#1 42368104#0 47986354#3 47986354#2 139015309#6"/>
    </person>
    <person id="ped24" depart="1365.63">
        <walk edges="42368105#4 42367702 97381230 97381231#1 97381231#0 301592628#1"/>
    </person>
    <person id="ped25" depart="1422.53">
        <walk edges="301780867#0" busStop="760646151"/>
        <ride busStop="760646131" lines="16:1"/>
        <walk edges="301780867#2 539419584 539419583#0 539419583#1 539419583#2 42368104#1 42368104#0 440834742 42368103#2 42368103#1 42368103#0 97381230 97381231#1 97381231#0 -301592628#0 139015293"/>
    </person>
    <person id="ped26" depart="1479.43">
        <walk edges="139015309#5 47986354#2 47986354#3 42368104#0 42368104#1 539419583#3 539419583#4 539419583#5 539419583#6 539419583#7 100657350#2 604400711#0"/>
    </person>
    <person id="ped27" depart="1536.33">
        <walk edges="42368106#0 42368105#4 42368105#3 42368105#2 42368105#1"/>
    </person>
    <person id="ped28" depart="1593.23">
        <walk edges="100657350#9 100657350#10 302654040 42367702 97381230 97381231#1 97381231#0 44885153#0 44885153#1"/>
    </person>
    <person id="ped29" depart="1650.13">
        <walk edges="100657350#8 100657350#7 100657350#6 100657350#5 100657350#4 42367703#0 301592616 539419583#6 539419583#5 539419583#4 539419583#3 539419583#2 539419583#1 539419583#0 539419584 301780867#2"/>
    </person>
    <person id="ped30" depart="1707.03">
        <walk edges="97381231#0 97381231#1 97381230 42367702 42368105#4"/>
    </person>
    <person id="ped31" depart="1763.93">
        <walk edges="42368103#2 440834743#3 440834743#2 440834743#1"/>
    </person>
    <person id="ped32" depart="1820.83">
        <walk edges="539419583#1 539419583#2 42368104#1 42368104#0 47986354#3 47986354#2"/>
    </person>
    <person id="ped33" depart="1877.74">
        <walk edges="139015309#1 42368102#0 42367702 -42368106#0"/>
    </person>
    <person id="ped34" depart="1934.64">
        <walk edges="139110194#2 139110194#1 139110194#0 440834743#3 139015309#4 139015309#5"/>
    </person>
    <person id="ped35" depart="1991.54">
        <walk edges="139015293 -301592628#0 97381231#0 97381231#1 44894860 100657350#12 604400710" busStop="761117290"/>
        <walk edges="539419579 604400711#1"/>
    </person>
    <person id="ped36" depart="2048.44">
        <walk edges="539419583#5 539419583#4 539419583#3 42368104#1 42368104#0 440834742 139110194#0 139110194#1 139110194#2"/>
    </person>
    <person id="ped37" depart="2105.34">
        <walk edges="42368106#1 42368106#0 302654040"/>
    </person>
    <person id="ped38" depart="2162.24">
        <walk edges="540412987 44885153#0 97381231#0 97381231#1 44894860 100657350#12 604400710" busStop="117091092"/>
        <walk edges="42367703#1 42367703#0"/>
    </person>
    <person id="ped39" depart="2219.14">
        <walk edges="139015309#5 139015309#4 139015309#3"/>
    </person>
    <person id="ped40" depart="2276.04">
        <walk edges="42368104#0 47986354#3 47986354#2 139015309#5"/>
    </person>
    <person id="ped41" depart="2332.94">
        <walk edges="42368104#2 539419583#3 539419583#4 539419583#5 539419583#6 539419583#7"/>
    </person>
    <person id="ped42" depart="2389.85">
        <walk edges="302654040 42367702 42368102#0 139015309#0"/>
    </person>
    <person id="ped43" depart="2446.75">
        <walk edges="97381231#1 44894860 100657350#12 604400710" busStop="117091092"/>
        <walk edges="42367703#1 42367703#0 42368101#2"/>
    </person>
    <person id="ped44" depart="2503.65">
        <walk edges="100657350#12 604400710" busStop="117091092"/>
        <walk edges="42367703#1 100657350#3 100657350#2 100657350#1 -4702468#0"/>
    </person>
    <person id="ped45" depart="2560.55">
        <walk edges="100657350#3 42367703#0 42368105#0 42368105#1 42368105#2 42368105#3"/>
    </person>
    <person id="ped46" depart="2617.45">
        <walk edges="534884347 100657350#10 302654040 42368106#0 44894860 97381228 40739235"/>
    </person>
    <person id="ped47" depart="2674.35">
        <walk edges="100657350#1 139015291 539419583#6 539419583#5 539419583#4 539419583#3 539419583#2 539419583#1 539419583#0 539419584 301780867#2"/>
    </person>
    <person id="ped48" depart="2731.25">
        <walk edges="97381231#1 97381230 42368103#0"/>
    </person>
    <person id="ped49" depart="2788.15">
        <walk edges="97381228 97381230 42368103#0 42368103#1 42368103#2 440834742 42368104#0 42368104#1 539419583#3"/>
    </person>
    <person id="ped50" depart="2845.05">
        <walk edges="-301592609 440834743#0 440834743#1 440834743#2 139015309#3 139015309#2 139015309#1 139015309#0 97381231#0 44885153#0"/>
    </person>
    <person id="ped51" depart="2901.95">
        <walk edges="440834743#0 440834743#1 440834743#2 440834743#3 42368103#2 42368103#1 42368103#0"/>
    </person>
    <person id="ped52" depart="2958.86">
        <walk edges="139015309#5 139015309#4 440834743#3 139110194#0 139110194#1 139110194#2 42368105#4"/>
    </person>
    <person id="ped53" depart="3015.76">
        <walk edges="100657350#3 100657350#2 539419583#7 539419583#6 539419583#5 539419583#4 539419583#3 539419583#2 539419583#1 539419583#0 40739239#1"/>
    </person>
    <person id="ped54" depart="3072.66">
        <walk edges="42367703#0 42367703#1" busStop="117091092"/>
        <walk edges="302654043 302654040 42367702 42368102#0 42368102#1 64942958"/>
    </person>
    <person id="ped55" depart="3129.56">
        <walk edges="539419583#5 539419583#4 539419583#3 42368104#1 42368104#0 47986354#3 47986354#2 139015309#5"/>
    </person>
    <person id="ped56" depart="3186.46">
        <walk edges="42368101#2 301592616 139015291 101325123#0"/>
    </person>
    <person id="ped57" depart="3243.36">
        <walk edges="539419584 539419583#0 539419583#1 539419583#2 539419583#3 539419583#4"/>
    </person>
    <person id="ped58" depart="3300.26">
        <walk edges="139110194#1 139110194#2 42368105#4"/>
    </person>
    <person id="ped59" depart="3357.16">
        <walk edges="42368105#1 42368105#0 42367703#0 100657350#4 100657350#5 100657350#6 100657350#7"/>
    </person>
    <person id="ped60" depart="3414.06">
        <walk edges="47986354#1 47986354#2 47986354#3 440834742 42368103#2 42368103#1"/>
    </person>
    <person id="ped61" depart="3470.97">
        <walk edges="47986354#2 47986354#3 440834742 42368103#2 42368103#1 42368103#0"/>
    </person>
    <person id="ped62" depart="3527.87">
        <walk edges="-139015293 -301592628#0 97381231#0 97381231#1 97381230 42368103#0 42368103#1 42368103#2 440834742 42368104#0 42368104#1 539419583#2 539419583#1 539419583#0 40739239#0 301592608"/>
    </person>
    <person id="ped63" depart="3584.77">
        <walk edges="-301592628#0 97381231#0 97381231#1 44894860 100657350#12 604400710" busStop="761117290"/>
        <walk edges="302654043" busStop="760309208"/>
        <walk edges="604400710"/>
    </person>
</routes>
