<?xml version="1.0" encoding="UTF-8"?>

<!-- generated on 06/13/20 23:23:05 by SUMO netconvert Version 0.32.0
<?xml version="1.0" encoding="UTF-8"?>

<configuration xmlns:xsi="http://www.w3.org/2001/XMLSchema-instance" xsi:noNamespaceSchemaLocation="http://sumo.dlr.de/xsd/netconvertConfiguration.xsd">

    <input>
        <type-files value="C:\Program%20Files%20(x86)\DLR\Sumo\data\typemap\osmNetconvert.typ.xml,C:\Program%20Files%20(x86)\DLR\Sumo\data\typemap\osmNetconvertUrbanDe.typ.xml,C:\Program%20Files%20(x86)\DLR\Sumo\data\typemap\osmNetconvertPedestrians.typ.xml,C:\Program%20Files%20(x86)\DLR\Sumo\data\typemap\osmNetconvertBicycle.typ.xml"/>
        <osm-files value="osm_bbox.osm.xml"/>
    </input>

    <output>
        <output-file value="C:\Users\JTech%20Global\Sumo\2020-06-13-23-22-59\osm.net.xml"/>
        <output.street-names value="true"/>
        <output.original-names value="true"/>
        <ptstop-output value="osm_stops.add.xml"/>
        <ptline-output value="osm_ptlines.xml"/>
    </output>

    <projection>
        <proj.utm value="true"/>
    </projection>

    <tls_building>
        <tls.discard-simple value="true"/>
        <tls.join value="true"/>
        <tls.guess-signals value="true"/>
        <tls.default-type value="actuated"/>
    </tls_building>

    <ramp_guessing>
        <ramps.guess value="true"/>
    </ramp_guessing>

    <processing>
        <geometry.remove value="true"/>
        <roundabouts.guess value="true"/>
        <junctions.join value="true"/>
        <junctions.corner-detail value="5"/>
        <crossings.guess value="true"/>
    </processing>

    <report>
        <verbose value="true"/>
    </report>

</configuration>
-->

<net version="0.27" junctionCornerDetail="5" walkingareas="true" xmlns:xsi="http://www.w3.org/2001/XMLSchema-instance" xsi:noNamespaceSchemaLocation="http://sumo.dlr.de/xsd/net_file.xsd">

    <location netOffset="-475090.23,-5550587.92" convBoundary="0.00,0.00,900.70,1210.86" origBoundary="8.646005,50.107057,8.664245,50.117915" projParameter="+proj=utm +zone=32 +ellps=WGS84 +datum=WGS84 +units=m +no_defs"/>

    <type id="cycleway.lane" allow="bicycle" bikeLaneWidth="1.00"/>
    <type id="cycleway.lane|highway.primary" priority="9" numLanes="2" speed="13.90" disallow="tram rail_urban rail rail_electric pedestrian ship" oneway="0" sidewalkWidth="3.00" bikeLaneWidth="1.00"/>
    <type id="cycleway.lane|highway.primary_link" priority="8" numLanes="1" speed="13.90" disallow="tram rail_urban rail rail_electric pedestrian ship" oneway="0" sidewalkWidth="3.00" bikeLaneWidth="1.00"/>
    <type id="cycleway.opposite_lane" allow="bicycle" bikeLaneWidth="1.00"/>
    <type id="cycleway.opposite_track" allow="bicycle" bikeLaneWidth="1.50"/>
    <type id="cycleway.track" allow="bicycle" bikeLaneWidth="1.50"/>
    <type id="highway.bridleway" priority="1" numLanes="1" speed="2.78" allow="pedestrian" oneway="1" width="2.00"/>
    <type id="highway.bus_guideway" priority="1" numLanes="1" speed="8.33" allow="bus" oneway="1"/>
    <type id="highway.cycleway" priority="1" numLanes="1" speed="5.56" allow="bicycle" oneway="0" width="1.00"/>
    <type id="highway.footway" priority="1" numLanes="1" speed="2.78" allow="pedestrian" oneway="1" width="2.00"/>
    <type id="highway.ford" priority="1" numLanes="1" speed="2.78" allow="army" oneway="0"/>
    <type id="highway.living_street" priority="3" numLanes="1" speed="2.78" disallow="tram rail_urban rail rail_electric ship" oneway="0"/>
    <type id="highway.motorway" priority="13" numLanes="2" speed="27.78" allow="private emergency authority army vip passenger hov taxi bus coach delivery truck trailer motorcycle evehicle custom1 custom2" oneway="1"/>
    <type id="highway.motorway_link" priority="12" numLanes="1" speed="16.67" allow="private emergency authority army vip passenger hov taxi bus coach delivery truck trailer motorcycle evehicle custom1 custom2" oneway="1"/>
    <type id="highway.path" priority="1" numLanes="1" speed="2.78" allow="bicycle pedestrian" oneway="1" width="2.00"/>
    <type id="highway.pedestrian" priority="1" numLanes="1" speed="2.78" allow="pedestrian" oneway="1" width="2.00"/>
    <type id="highway.primary" priority="9" numLanes="2" speed="13.89" disallow="tram rail_urban rail rail_electric pedestrian ship" oneway="0" sidewalkWidth="3.00"/>
    <type id="highway.primary_link" priority="8" numLanes="1" speed="13.89" disallow="tram rail_urban rail rail_electric pedestrian ship" oneway="0" sidewalkWidth="3.00"/>
    <type id="highway.raceway" priority="14" numLanes="2" speed="83.33" allow="vip" oneway="0"/>
    <type id="highway.residential" priority="4" numLanes="1" speed="13.89" disallow="tram rail_urban rail rail_electric pedestrian ship" oneway="0" sidewalkWidth="2.00"/>
    <type id="highway.secondary" priority="7" numLanes="2" speed="13.89" disallow="tram rail_urban rail rail_electric pedestrian ship" oneway="0" sidewalkWidth="3.00"/>
    <type id="highway.secondary_link" priority="6" numLanes="1" speed="13.89" disallow="tram rail_urban rail rail_electric pedestrian ship" oneway="0" sidewalkWidth="3.00"/>
    <type id="highway.service" priority="2" numLanes="1" speed="5.56" allow="delivery bicycle pedestrian" oneway="0"/>
    <type id="highway.services" priority="1" numLanes="1" speed="8.33" disallow="tram rail_urban rail rail_electric ship" oneway="0"/>
    <type id="highway.stairs" priority="1" numLanes="1" speed="1.39" allow="pedestrian" oneway="1" width="2.00"/>
    <type id="highway.step" priority="1" numLanes="1" speed="1.39" allow="pedestrian" oneway="1" width="2.00"/>
    <type id="highway.steps" priority="1" numLanes="1" speed="1.39" allow="pedestrian" oneway="1" width="2.00"/>
    <type id="highway.tertiary" priority="6" numLanes="1" speed="13.89" disallow="tram rail_urban rail rail_electric pedestrian ship" oneway="0" sidewalkWidth="3.00"/>
    <type id="highway.tertiary_link" priority="5" numLanes="1" speed="13.89" disallow="tram rail_urban rail rail_electric pedestrian ship" oneway="0" sidewalkWidth="2.00"/>
    <type id="highway.track" priority="1" numLanes="1" speed="5.56" disallow="tram rail_urban rail rail_electric ship" oneway="0"/>
    <type id="highway.trunk" priority="11" numLanes="2" speed="13.89" disallow="tram rail_urban rail rail_electric bicycle pedestrian ship" oneway="0"/>
    <type id="highway.trunk_link" priority="10" numLanes="1" speed="13.89" disallow="tram rail_urban rail rail_electric bicycle pedestrian ship" oneway="0"/>
    <type id="highway.unclassified" priority="5" numLanes="1" speed="13.89" disallow="tram rail_urban rail rail_electric pedestrian ship" oneway="0" sidewalkWidth="2.00"/>
    <type id="highway.unsurfaced" priority="1" numLanes="1" speed="8.33" disallow="tram rail_urban rail rail_electric ship" oneway="0"/>
    <type id="railway.light_rail" priority="15" numLanes="1" speed="27.78" allow="rail_urban" oneway="1"/>
    <type id="railway.preserved" priority="15" numLanes="1" speed="27.78" allow="rail" oneway="1"/>
    <type id="railway.rail" priority="15" numLanes="1" speed="83.33" allow="rail rail_electric" oneway="1"/>
    <type id="railway.subway" priority="15" numLanes="1" speed="27.78" allow="rail_urban" oneway="1"/>
    <type id="railway.tram" priority="15" numLanes="1" speed="13.89" allow="tram" oneway="1"/>

    <edge id=":1163663401_w0" function="walkingarea">
        <lane id=":1163663401_w0_0" index="0" allow="pedestrian" speed="1.00" length="3.71" width="2.00" shape="609.86,269.76 610.86,268.03 610.50,266.85 609.14,265.38 605.90,268.75 607.42,270.05 609.38,269.53 608.94,269.42 608.52,269.41 608.12,269.51 607.76,269.73"/>
    </edge>
    <edge id=":1163663648_0" function="internal">
        <lane id=":1163663648_0_0" index="0" allow="bicycle" speed="13.89" length="3.10" width="1.00" shape="613.66,266.27 612.78,265.82 612.18,265.50 611.60,265.16 610.76,264.64"/>
        <lane id=":1163663648_0_1" index="1" disallow="tram rail_urban rail rail_electric bicycle pedestrian ship" speed="13.89" length="3.10" shape="614.65,264.30 613.82,263.88 613.26,263.58 612.71,263.26 611.92,262.77"/>
        <lane id=":1163663648_0_2" index="2" disallow="tram rail_urban rail rail_electric bicycle pedestrian ship" speed="13.89" length="3.10" shape="616.13,261.36 615.38,260.97 614.87,260.70 614.37,260.41 613.65,259.97"/>
    </edge>
    <edge id=":1163663648_c0" function="crossing" crossingEdges="42368104#1">
        <lane id=":1163663648_c0_0" index="0" allow="pedestrian" speed="1.00" length="7.60" width="4.00" shape="615.07,259.03 611.65,265.82"/>
    </edge>
    <edge id=":1163663648_w0" function="walkingarea">
        <lane id=":1163663648_w0_0" index="0" allow="pedestrian" speed="1.00" length="3.76" width="4.00" shape="610.44,265.15 608.86,267.70 612.81,261.99 614.17,263.46 612.04,269.49 613.39,266.81 612.80,266.39 612.32,266.15 611.94,265.94 611.56,265.72 611.10,265.45"/>
    </edge>
    <edge id=":1163663648_w1" function="walkingarea">
        <lane id=":1163663648_w1_0" index="0" allow="pedestrian" speed="1.00" length="2.82" width="4.00" shape="616.85,259.93 615.17,262.50 613.77,261.08 614.98,258.91 615.35,259.13 615.65,259.31 615.96,259.47 616.34,259.67"/>
    </edge>
    <edge id=":117091094_0" function="internal">
        <lane id=":117091094_0_0" index="0" allow="tram" speed="13.89" length="2.51" shape="660.73,254.92 660.11,255.33 659.69,255.62 659.28,255.92 658.70,256.38"/>
    </edge>
    <edge id=":117091094_1" function="internal">
        <lane id=":117091094_1_0" index="0" allow="tram" speed="13.89" length="2.83" shape="660.73,254.92 658.33,256.41"/>
    </edge>
    <edge id=":117097084_0" function="internal">
        <lane id=":117097084_0_0" index="0" allow="tram" speed="13.89" length="13.61" shape="624.89,258.21 628.33,259.12 631.55,259.82 634.79,260.16 638.29,259.99"/>
    </edge>
    <edge id=":117097084_1" function="internal">
        <lane id=":117097084_1_0" index="0" allow="bicycle" speed="13.89" length="0.10" width="1.00" shape="632.41,256.99 632.35,257.03"/>
        <lane id=":117097084_1_1" index="1" disallow="tram rail_urban rail rail_electric bicycle pedestrian ship" speed="13.89" length="0.10" shape="633.71,258.77 633.69,258.78"/>
        <lane id=":117097084_1_2" index="2" disallow="tram rail_urban rail rail_electric bicycle pedestrian ship" speed="13.89" length="0.10" shape="635.66,261.43 635.69,261.41"/>
    </edge>
    <edge id=":117097084_c0" function="crossing" crossingEdges="12801530#2">
        <lane id=":117097084_c0_0" index="0" allow="pedestrian" speed="1.00" length="3.20" width="4.00" shape="626.42,260.27 627.24,257.18"/>
    </edge>
    <edge id=":117097084_w0" function="walkingarea">
        <lane id=":117097084_w0_0" index="0" allow="pedestrian" speed="1.00" length="4.24" width="4.00" shape="631.99,256.56 630.17,254.17 625.31,256.66 626.88,257.03 628.27,257.25 629.48,257.32 630.51,257.24 631.37,257.01"/>
    </edge>
    <edge id=":117097084_w1" function="walkingarea">
        <lane id=":117097084_w1_0" index="0" allow="pedestrian" speed="1.00" length="6.87" width="4.00" shape="628.35,260.78 624.48,259.75 630.27,254.09 632.05,256.51"/>
    </edge>
    <edge id=":1420798758_0" function="internal">
        <lane id=":1420798758_0_0" index="0" allow="bicycle" speed="13.89" length="0.14" width="1.00" shape="720.13,196.39 720.30,196.28"/>
        <lane id=":1420798758_0_1" index="1" disallow="tram rail_urban rail rail_electric bicycle pedestrian ship" speed="13.89" length="0.14" shape="721.39,198.20 721.46,198.15"/>
        <lane id=":1420798758_0_2" index="2" disallow="tram rail_urban rail rail_electric bicycle pedestrian ship" speed="13.89" length="0.14" shape="723.28,200.90 723.20,200.95"/>
    </edge>
    <edge id=":1420798758_w0" function="walkingarea">
        <lane id=":1420798758_w0_0" index="0" allow="pedestrian" speed="1.00" length="0.32" width="3.00" shape="719.98,195.77 718.40,193.22 718.06,193.44 719.78,195.90"/>
    </edge>
    <edge id=":1523930165_w0" function="walkingarea">
        <lane id=":1523930165_w0_0" index="0" allow="pedestrian" speed="1.00" length="4.57" width="2.00" shape="639.53,246.71 640.79,245.16 640.80,244.35 639.78,242.63 634.68,245.07 635.08,247.03 639.00,246.50 638.25,246.47 637.38,246.56 636.50,246.72 635.70,246.90"/>
    </edge>
    <edge id=":1523930168_w0" function="walkingarea">
        <lane id=":1523930168_w0_0" index="0" allow="pedestrian" speed="1.00" length="4.22" width="2.00" shape="633.38,247.38 632.98,245.42 629.26,244.41 628.25,246.15 628.37,247.82 629.59,249.40 632.49,247.59 631.84,247.80 631.33,248.06 630.86,248.39 630.31,248.82"/>
    </edge>
    <edge id=":1523930186_0" function="internal">
        <lane id=":1523930186_0_0" index="0" allow="tram" speed="13.89" length="5.17" shape="650.08,257.22 651.51,256.68 652.43,256.19 653.31,255.61 654.60,254.77"/>
    </edge>
    <edge id=":1523930186_c0" function="crossing" crossingEdges="12801530#5">
        <lane id=":1523930186_c0_0" index="0" allow="pedestrian" speed="1.00" length="3.20" width="4.00" shape="652.06,254.45 653.73,257.18"/>
    </edge>
    <edge id=":1523930186_w0" function="walkingarea">
        <lane id=":1523930186_w0_0" index="0" allow="pedestrian" speed="1.00" length="1.38" width="4.00" shape="652.59,256.73 653.76,255.11 655.44,256.14 654.45,256.77 653.72,257.25 653.12,257.64 652.49,257.98 651.70,258.33"/>
    </edge>
    <edge id=":1523930186_w1" function="walkingarea">
        <lane id=":1523930186_w1_0" index="0" allow="pedestrian" speed="1.00" length="0.60" width="4.00" shape="653.77,253.41 652.55,254.23 651.37,255.85 650.52,255.36 651.20,255.05 651.75,254.74 652.27,254.39 652.90,253.96"/>
    </edge>
    <edge id=":1523930188_0" function="internal">
        <lane id=":1523930188_0_0" index="0" allow="tram" speed="13.89" length="6.39" shape="617.55,254.85 623.28,257.67"/>
    </edge>
    <edge id=":1523930188_c0" function="crossing" crossingEdges="12801530#1">
        <lane id=":1523930188_c0_0" index="0" allow="pedestrian" speed="1.00" length="3.20" width="4.00" shape="618.50,257.23 620.07,254.44"/>
    </edge>
    <edge id=":1523930188_w0" function="walkingarea">
        <lane id=":1523930188_w0_0" index="0" allow="pedestrian" speed="1.00" length="2.23" width="4.00" shape="622.98,255.24 621.62,253.77 618.33,253.46 621.82,255.42"/>
    </edge>
    <edge id=":1523930188_w1" function="walkingarea">
        <lane id=":1523930188_w1_0" index="0" allow="pedestrian" speed="1.00" length="0.72" width="4.00" shape="620.24,258.21 616.76,256.24 618.52,256.67 619.88,258.13"/>
    </edge>
    <edge id=":1523930196_0" function="internal">
        <lane id=":1523930196_0_0" index="0" allow="tram" speed="13.89" length="5.22" shape="652.09,257.85 653.22,256.78 654.01,256.08 654.83,255.41 656.05,254.45"/>
    </edge>
    <edge id=":1523930196_c0" function="crossing" crossingEdges="60773773#8">
        <lane id=":1523930196_c0_0" index="0" allow="pedestrian" speed="1.00" length="3.20" width="4.00" shape="653.48,254.44 655.47,256.95"/>
    </edge>
    <edge id=":1523930196_w0" function="walkingarea">
        <lane id=":1523930196_w0_0" index="0" allow="pedestrian" speed="1.00" length="0.86" width="4.00" shape="654.02,257.78 655.20,256.16 657.04,255.71 656.19,256.37 655.57,256.87 655.06,257.29 654.57,257.72 653.98,258.26"/>
    </edge>
    <edge id=":1523930196_w1" function="walkingarea">
        <lane id=":1523930196_w1_0" index="0" allow="pedestrian" speed="1.00" length="1.61" width="4.00" shape="655.05,253.20 653.92,255.23 652.75,256.85 651.81,255.91 652.43,255.33 652.96,254.87 653.49,254.43 654.16,253.90"/>
    </edge>
    <edge id=":1523930204_0" function="internal">
        <lane id=":1523930204_0_0" index="0" allow="tram" speed="13.89" length="5.18" shape="657.48,256.91 653.01,259.53"/>
    </edge>
    <edge id=":1523930204_c0" function="crossing" crossingEdges="30283901#0">
        <lane id=":1523930204_c0_0" index="0" allow="pedestrian" speed="1.00" length="3.20" width="4.00" shape="654.94,256.54 656.56,259.30"/>
    </edge>
    <edge id=":1523930204_w0" function="walkingarea">
        <lane id=":1523930204_w0_0" index="0" allow="pedestrian" speed="1.00" length="1.45" width="4.00" shape="655.41,258.78 656.58,257.16 658.28,258.29 654.83,260.31"/>
    </edge>
    <edge id=":1523930204_w1" function="walkingarea">
        <lane id=":1523930204_w1_0" index="0" allow="pedestrian" speed="1.00" length="0.57" width="4.00" shape="653.22,257.55 656.67,255.53 655.36,256.28 654.19,257.89"/>
    </edge>
    <edge id=":1523930205_0" function="internal">
        <lane id=":1523930205_0_0" index="0" allow="tram" speed="13.89" length="4.73" shape="658.43,256.60 654.75,259.57"/>
    </edge>
    <edge id=":1523930205_c0" function="crossing" crossingEdges="15020661#0">
        <lane id=":1523930205_c0_0" index="0" allow="pedestrian" speed="1.00" length="3.20" width="4.00" shape="655.87,256.61 657.88,259.10"/>
    </edge>
    <edge id=":1523930205_w0" function="walkingarea">
        <lane id=":1523930205_w0_0" index="0" allow="pedestrian" speed="1.00" length="0.45" width="4.00" shape="657.52,260.30 658.69,258.68 659.44,257.84 656.32,260.35"/>
    </edge>
    <edge id=":1523930205_w1" function="walkingarea">
        <lane id=":1523930205_w1_0" index="0" allow="pedestrian" speed="1.00" length="1.50" width="4.00" shape="654.31,257.86 657.43,255.35 656.74,257.27 655.57,258.90"/>
    </edge>
    <edge id=":1523930211_0" function="internal">
        <lane id=":1523930211_0_0" index="0" allow="tram" speed="13.89" length="6.12" shape="620.59,260.08 615.28,257.05"/>
    </edge>
    <edge id=":1523930211_c0" function="crossing" crossingEdges="30283901#5">
        <lane id=":1523930211_c0_0" index="0" allow="pedestrian" speed="1.00" length="3.20" width="4.00" shape="616.21,259.43 617.81,256.66"/>
    </edge>
    <edge id=":1523930211_w0" function="walkingarea">
        <lane id=":1523930211_w0_0" index="0" allow="pedestrian" speed="1.00" length="1.52" width="4.00" shape="619.74,258.27 618.37,256.81 616.07,255.66 619.54,257.66"/>
    </edge>
    <edge id=":1523930211_w1" function="walkingarea">
        <lane id=":1523930211_w1_0" index="0" allow="pedestrian" speed="1.00" length="0.53" width="4.00" shape="617.95,260.43 614.48,258.44 615.97,259.01 617.31,260.50"/>
    </edge>
    <edge id=":1523930218_0" function="internal">
        <lane id=":1523930218_0_0" index="0" allow="tram" speed="13.89" length="6.06" shape="611.26,261.18 610.71,259.46 610.30,258.23 609.63,257.21 608.28,256.10"/>
    </edge>
    <edge id=":1523930218_1" function="internal">
        <lane id=":1523930218_1_0" index="0" allow="bicycle" speed="13.89" length="1.48" width="1.00" shape="608.98,263.55 607.75,262.81"/>
        <lane id=":1523930218_1_1" index="1" disallow="tram rail_urban rail rail_electric bicycle pedestrian ship" speed="13.89" length="1.48" shape="610.14,261.68 608.88,260.92"/>
        <lane id=":1523930218_1_2" index="2" disallow="tram rail_urban rail rail_electric bicycle pedestrian ship" speed="13.89" length="1.48" shape="611.88,258.87 610.57,258.09"/>
    </edge>
    <edge id=":1523930218_w0" function="walkingarea">
        <lane id=":1523930218_w0_0" index="0" allow="pedestrian" speed="1.00" length="1.40" width="3.00" shape="607.44,263.32 605.90,265.90 607.09,266.61 608.67,264.06"/>
    </edge>
    <edge id=":1523930227_0" function="internal">
        <lane id=":1523930227_0_0" index="0" allow="tram" speed="13.89" length="4.11" shape="613.79,258.77 614.53,259.74 615.03,260.42 615.44,261.15 615.90,262.27"/>
    </edge>
    <edge id=":1523930227_c0" function="crossing" crossingEdges="40426243#0">
        <lane id=":1523930227_c0_0" index="0" allow="pedestrian" speed="1.00" length="3.20" width="4.00" shape="613.71,261.33 616.27,259.41"/>
    </edge>
    <edge id=":1523930227_w0" function="walkingarea">
        <lane id=":1523930227_w0_0" index="0" allow="pedestrian" speed="1.00" length="0.53" width="4.00" shape="617.16,260.63 615.82,259.15 615.07,257.81 615.66,258.58 616.10,259.16 616.44,259.64 616.74,260.16 617.04,260.81"/>
    </edge>
    <edge id=":1523930227_w1" function="walkingarea">
        <lane id=":1523930227_w1_0" index="0" allow="pedestrian" speed="1.00" length="0.96" width="4.00" shape="612.51,259.74 613.91,260.94 615.31,262.36 614.11,262.11 613.87,261.60 613.62,261.19 613.34,260.81 612.98,260.35"/>
    </edge>
    <edge id=":1523930236_0" function="internal">
        <lane id=":1523930236_0_0" index="0" allow="tram" speed="13.89" length="6.34" shape="613.39,267.34 612.95,265.52 612.53,264.31 612.02,263.12 611.33,261.37"/>
    </edge>
    <edge id=":1523930236_c0" function="crossing" crossingEdges="60773774#4">
        <lane id=":1523930236_c0_0" index="0" allow="pedestrian" speed="1.00" length="3.20" width="4.00" shape="610.52,263.80 613.52,262.69"/>
    </edge>
    <edge id=":1523930236_w0" function="walkingarea">
        <lane id=":1523930236_w0_0" index="0" allow="pedestrian" speed="1.00" length="0.24" width="4.00" shape="614.02,263.59 612.67,262.12 612.83,260.81 613.34,262.12 613.74,263.07 614.07,263.86 614.36,264.66 614.64,265.65"/>
    </edge>
    <edge id=":1523930236_w1" function="walkingarea">
        <lane id=":1523930236_w1_0" index="0" allow="pedestrian" speed="1.00" length="2.25" width="4.00" shape="609.83,261.92 609.29,265.24 610.64,266.71 611.53,266.41 611.26,265.49 610.99,264.75 610.68,264.02 610.30,263.13"/>
    </edge>
    <edge id=":1523930241_0" function="internal">
        <lane id=":1523930241_0_0" index="0" allow="bicycle" speed="13.89" length="1.05" width="1.00" shape="615.55,267.23 614.64,266.76"/>
        <lane id=":1523930241_0_1" index="1" disallow="tram rail_urban rail rail_electric bicycle pedestrian ship" speed="13.89" length="1.05" shape="616.56,265.28 615.63,264.80"/>
        <lane id=":1523930241_0_2" index="2" disallow="tram rail_urban rail rail_electric bicycle pedestrian ship" speed="13.89" length="1.05" shape="618.08,262.35 617.11,261.85"/>
    </edge>
    <edge id=":1523930241_3" function="internal">
        <lane id=":1523930241_3_0" index="0" allow="tram" speed="13.89" length="9.52" shape="615.97,262.45 616.89,265.11 617.34,267.00 617.57,268.93 617.86,271.74"/>
    </edge>
    <edge id=":1523930241_w0" function="walkingarea">
        <lane id=":1523930241_w0_0" index="0" allow="pedestrian" speed="1.00" length="0.99" width="3.00" shape="614.37,267.30 613.03,269.98 613.88,270.43 615.27,267.77"/>
    </edge>
    <edge id=":1523930250_0" function="internal">
        <lane id=":1523930250_0_0" index="0" allow="tram" speed="13.89" length="7.03" shape="614.70,274.40 613.97,272.48 613.77,271.07 613.72,269.61 613.43,267.54"/>
    </edge>
    <edge id=":1523930250_c0" function="crossing" crossingEdges="60773774#3">
        <lane id=":1523930250_c0_0" index="0" allow="pedestrian" speed="1.00" length="3.20" width="4.00" shape="612.28,269.82 615.41,269.17"/>
    </edge>
    <edge id=":1523930250_w0" function="walkingarea">
        <lane id=":1523930250_w0_0" index="0" allow="pedestrian" speed="1.00" length="3.68" width="4.00" shape="616.26,273.46 617.26,271.72 615.00,267.21 615.22,268.61 615.28,269.67 615.29,270.55 615.37,271.42 615.61,272.42"/>
    </edge>
    <edge id=":1523930250_w1" function="walkingarea">
        <lane id=":1523930250_w1_0" index="0" allow="pedestrian" speed="1.00" length="1.93" width="4.00" shape="611.87,267.87 611.03,268.13 610.03,269.86 612.66,273.65 612.36,272.54 612.25,271.58 612.21,270.60 612.12,269.42"/>
    </edge>
    <edge id=":1523930256_0" function="internal">
        <lane id=":1523930256_0_0" index="0" allow="bicycle" speed="13.89" length="1.62" width="1.00" shape="612.91,269.79 614.18,268.75"/>
        <lane id=":1523930256_0_1" index="1" disallow="tram rail_urban rail rail_electric bicycle pedestrian ship" speed="13.89" length="1.62" shape="614.31,271.49 615.56,270.46"/>
        <lane id=":1523930256_0_2" index="2" disallow="tram rail_urban rail rail_electric bicycle pedestrian ship" speed="13.89" length="1.62" shape="616.40,274.04 617.64,273.03"/>
        <lane id=":1523930256_0_3" index="3" disallow="tram rail_urban rail rail_electric bicycle pedestrian ship" speed="13.89" length="1.62" shape="618.49,276.60 619.75,275.56"/>
    </edge>
    <edge id=":1523930256_c0" function="crossing" crossingEdges="47986354#2">
        <lane id=":1523930256_c0_0" index="0" allow="pedestrian" speed="1.00" length="10.90" width="4.00" shape="612.31,269.62 619.20,278.06"/>
    </edge>
    <edge id=":1523930256_w0" function="walkingarea">
        <lane id=":1523930256_w0_0" index="0" allow="pedestrian" speed="1.00" length="5.10" width="4.00" shape="617.26,274.04 618.27,272.31 620.75,276.80 617.65,279.33"/>
    </edge>
    <edge id=":1523930256_w1" function="walkingarea">
        <lane id=":1523930256_w1_0" index="0" allow="pedestrian" speed="1.00" length="4.23" width="4.00" shape="610.76,270.88 613.86,268.36 613.84,268.25 611.95,265.92 617.43,271.82 616.43,273.56 610.63,267.00 612.53,269.32"/>
    </edge>
    <edge id=":1523930261_0" function="internal">
        <lane id=":1523930261_0_0" index="0" allow="tram" speed="13.89" length="2.31" shape="618.01,273.03 617.99,273.71 617.85,274.18 617.73,274.64 617.79,275.31"/>
    </edge>
    <edge id=":1523930261_c0" function="crossing" crossingEdges="40426243#3">
        <lane id=":1523930261_c0_0" index="0" allow="pedestrian" speed="1.00" length="3.20" width="4.00" shape="616.63,275.19 619.81,274.85"/>
    </edge>
    <edge id=":1523930261_w0" function="walkingarea">
        <lane id=":1523930261_w0_0" index="0" allow="pedestrian" speed="1.00" length="0.50" width="4.00" shape="619.32,275.22 620.32,273.49 619.60,272.86 619.60,273.31 619.53,273.64 619.43,273.91 619.33,274.18 619.29,274.51"/>
    </edge>
    <edge id=":1523930261_w1" function="walkingarea">
        <lane id=":1523930261_w1_0" index="0" allow="pedestrian" speed="1.00" length="2.32" width="4.00" shape="616.42,273.20 618.45,272.41 617.43,274.14 616.16,275.15 616.18,274.77 616.27,274.45 616.36,274.12 616.43,273.73"/>
    </edge>
    <edge id=":1523930271_0" function="internal">
        <lane id=":1523930271_0_0" index="0" allow="tram" speed="13.89" length="4.30" shape="629.10,283.02 630.02,282.14 630.68,281.56 631.32,280.96 632.14,280.00"/>
    </edge>
    <edge id=":1523930271_c0" function="crossing" crossingEdges="60773773#3">
        <lane id=":1523930271_c0_0" index="0" allow="pedestrian" speed="1.00" length="3.20" width="4.00" shape="629.65,280.58 632.16,282.56"/>
    </edge>
    <edge id=":1523930271_w0" function="walkingarea">
        <lane id=":1523930271_w0_0" index="0" allow="pedestrian" speed="1.00" length="0.92" width="4.00" shape="631.93,282.54 632.93,280.81 633.40,280.98 632.80,281.72 632.32,282.23 631.89,282.62 631.45,283.00 630.93,283.47"/>
    </edge>
    <edge id=":1523930271_w1" function="walkingarea">
        <lane id=":1523930271_w1_0" index="0" allow="pedestrian" speed="1.00" length="1.35" width="4.00" shape="630.88,279.01 629.29,278.68 628.28,280.41 628.58,281.29 629.07,280.86 629.48,280.51 629.88,280.15 630.32,279.68"/>
    </edge>
    <edge id=":1523930274_0" function="internal">
        <lane id=":1523930274_0_0" index="0" allow="tram" speed="13.89" length="4.31" shape="634.67,281.43 633.84,282.41 633.25,283.05 632.63,283.67 631.72,284.56"/>
    </edge>
    <edge id=":1523930274_c0" function="crossing" crossingEdges="15020661#4">
        <lane id=":1523930274_c0_0" index="0" allow="pedestrian" speed="1.00" length="3.20" width="4.00" shape="632.16,281.96 634.63,283.99"/>
    </edge>
    <edge id=":1523930274_w0" function="walkingarea">
        <lane id=":1523930274_w0_0" index="0" allow="pedestrian" speed="1.00" length="1.37" width="4.00" shape="635.48,284.58 636.47,282.85 635.90,282.45 635.29,283.18 634.83,283.71 634.43,284.13 634.02,284.54 633.52,285.03"/>
    </edge>
    <edge id=":1523930274_w1" function="walkingarea">
        <lane id=":1523930274_w1_0" index="0" allow="pedestrian" speed="1.00" length="0.48" width="4.00" shape="633.43,280.41 633.11,280.91 632.11,282.64 631.21,282.81 631.68,282.35 632.06,281.97 632.43,281.58 632.87,281.09"/>
    </edge>
    <edge id=":1523930278_0" function="internal">
        <lane id=":1523930278_0_0" index="0" allow="bicycle" speed="13.89" length="5.98" width="1.00" shape="644.64,287.21 640.32,291.46"/>
        <lane id=":1523930278_0_1" index="1" disallow="tram rail_urban rail rail_electric bicycle pedestrian ship" speed="13.89" length="5.98" shape="643.21,285.53 642.04,286.96 641.39,288.20 640.60,289.15 639.02,289.67"/>
        <lane id=":1523930278_0_2" index="2" disallow="tram rail_urban rail rail_electric bicycle pedestrian ship" speed="13.89" length="5.98" shape="641.01,283.07 639.90,284.38 639.28,285.51 638.54,286.40 637.07,287.00"/>
    </edge>
    <edge id=":1523930278_c0" function="crossing" crossingEdges="42368102#0">
        <lane id=":1523930278_c0_0" index="0" allow="pedestrian" speed="1.00" length="7.60" width="4.00" shape="638.45,283.21 643.48,288.91"/>
    </edge>
    <edge id=":1523930278_w0" function="walkingarea">
        <lane id=":1523930278_w0_0" index="0" allow="pedestrian" speed="1.00" length="4.74" width="4.00" shape="641.65,291.66 641.46,294.66 647.76,291.26 648.70,289.49 647.04,289.89 645.04,287.65 644.02,288.63 643.42,289.63 642.96,290.51 642.43,291.23 641.62,291.73"/>
    </edge>
    <edge id=":1523930278_w1" function="walkingarea">
        <lane id=":1523930278_w1_0" index="0" allow="pedestrian" speed="1.00" length="2.38" width="4.00" shape="639.95,281.89 636.65,282.95 635.65,284.68 637.66,285.11 638.21,284.64 638.54,284.07 638.84,283.40 639.25,282.66"/>
    </edge>
    <edge id=":1523930286_w0" function="walkingarea">
        <lane id=":1523930286_w0_0" index="0" allow="pedestrian" speed="1.00" length="2.43" width="2.00" shape="651.14,291.02 649.73,289.60 648.87,289.59 647.94,291.36 648.74,292.68 650.73,292.92 650.88,291.33 650.75,291.60 650.72,291.87 650.73,292.15 650.75,292.49"/>
    </edge>