<?xml version="1.0" encoding="UTF-8"?>
<!-- generated on 2020-06-13 23:23:05.495808 by $Id$
  options: 
-->
<routes xmlns:xsi="http://www.w3.org/2001/XMLSchema-instance" xsi:noNamespaceSchemaLocation="http://sumo.dlr.de/xsd/routes_file.xsd">
    <vType id="pt_bus" vClass="bus"/>
    <vType id="pt_tram" vClass="tram"/>
    <vType id="pt_train" vClass="rail"/>
    <vType id="pt_subway" vClass="rail_urban"/>
    <vType id="pt_light_rail" vClass="rail_urban"/>
    <vType id="pt_monorail" vClass="rail"/>
    <vType id="pt_trolleybus" vClass="bus"/>
    <vType id="pt_aerialway" vClass="bus"/>
    <vType id="pt_ferry" vClass="ship"/>
    <trip id="0" type="pt_tram" depart="15" departLane="best" from="60773776#1" to="15020661#7">
        <stop busStop="117091092" duration="30"/>
        <stop busStop="117091105" duration="30"/>
        <stop busStop="117091111" duration="30"/>
    </trip>
    <trip id="1" type="pt_tram" depart="15" departLane="best" from="60773776#1" to="15020661#7">
        <stop busStop="117091092" duration="30"/>
        <stop busStop="117091105" duration="30"/>
        <stop busStop="117091111" duration="30"/>
    </trip>
    <trip id="5" type="pt_subway" depart="131" departLane="best" from="60734103#0" to="60734103#1">
        <stop busStop="2682026529" duration="30"/>
        <stop busStop="760309208" duration="30"/>
    </trip>
    <trip id="8" type="pt_tram" depart="253" departLane="best" from="60773776#1" to="15020661#7">
        <stop busStop="117091092" duration="30"/>
        <stop busStop="117091105" duration="30"/>
        <stop busStop="117091111" duration="30"/>
    </trip>
    <trip id="9" type="pt_tram" depart="303" departLane="best" from="60773773#0" to="60773770">
        <stop busStop="760646151" duration="30"/>
        <stop busStop="760646131" duration="30"/>
        <stop busStop="761117290" duration="30"/>
    </trip>
    <trip id="10" type="pt_tram" depart="326" departLane="best" from="60773773#0" to="60773770">
        <stop busStop="760646151" duration="30"/>
        <stop busStop="760646131" duration="30"/>
        <stop busStop="761117290" duration="30"/>
    </trip>
</routes>
