<?xml version="1.0" encoding="UTF-8"?>

<!-- generated on 07/14/20 20:17:48 by SUMO duarouter Version 0.32.0
<?xml version="1.0" encoding="UTF-8"?>

<configuration xmlns:xsi="http://www.w3.org/2001/XMLSchema-instance" xsi:noNamespaceSchemaLocation="http://sumo.dlr.de/xsd/duarouterConfiguration.xsd">

    <input>
        <net-file value="osm.net.xml"/>
        <route-files value="osm.bicycle.trips.xml"/>
    </input>

    <output>
        <output-file value="osm.bicycle.rou.xml"/>
        <alternatives-output value="osm.bicycle.rou.alt.xml"/>
    </output>

    <processing>
        <ignore-errors value="true"/>
    </processing>

    <time>
        <begin value="0"/>
        <end value="3600.0"/>
    </time>

    <report>
        <no-warnings value="true"/>
        <no-step-log value="true"/>
    </report>

</configuration>
-->

<routes xmlns:xsi="http://www.w3.org/2001/XMLSchema-instance" xsi:noNamespaceSchemaLocation="http://sumo.dlr.de/xsd/routes_file.xsd">
    <vType id="bicycle" speedFactor="normc(1.00,0.10,0.20,2.00)" vClass="bicycle"/>
    <vehicle id="bike0" type="bicycle" depart="0.00" departLane="best">
        <route edges="4221194#0 4221194#1 4221194#2 4221194#3 4824568#0 130784151#1 130764246#0 130764246#1 314789428#0 314789428#1 137275200#0 137275200#1 4652507#0 4652507#1 -140772396#8 -140772396#7 -140772396#6"/>
    </vehicle>
    <vehicle id="bike2" type="bicycle" depart="29.06" departLane="best">
        <route edges="4756456 130784151#0 130784151#1 130764246#0 130764246#1 314789428#0 314789428#1 137275200#0 137275200#1 4652507#0 4652507#1 4652507#2"/>
    </vehicle>
    <vehicle id="bike3" type="bicycle" depart="43.59" departLane="best">
        <route edges="59851743#0 314789433#0 4824697#0 4824697#1 4824697#2 4824697#3 4824695#1 -4824695#1"/>
    </vehicle>
    <vehicle id="bike4" type="bicycle" depart="58.12" departLane="best">
        <route edges="152445636#1 152445636#2 152445636#3 4726265 665610741 450074244 209114514#0 209114514#1 140772396#8 -140772396#8"/>
    </vehicle>
    <vehicle id="bike5" type="bicycle" depart="72.65" departLane="best">
        <route edges="137275200#0 137275200#1 4652507#0 4652507#1 -140772396#8 209114514#2 209114514#3 439942512 335993897 265499402#0 265499402#1 265499402#2 265499402#3"/>
    </vehicle>
    <vehicle id="bike6" type="bicycle" depart="87.18" departLane="best">
        <route edges="-140772396#9 4652507#2 4652507#3 450074243 90697744 265499418 314789435#1 314789436#0 314789436#1 84657866#0 84657866#1 84657866#2 84657869#0 84657869#1 84657869#2 314789432 138347505#0"/>
    </vehicle>
    <vehicle id="bike8" type="bicycle" depart="116.23" departLane="best">
        <route edges="137275200#1 4824557#0 4824557#1 148711386 209114498#0 209114498#1 142517768#0 142517768#1 142517768#3 142517768#4 37035107#0"/>
    </vehicle>
    <vehicle id="bike9" type="bicycle" depart="130.76" departLane="best">
        <route edges="4824703#5 4824702#1 4824702#2 132964155#0 132964155#1 211674510 314789435#1 84657864#0 84657864#1 84657864#2 314789430 84657872#0 84657872#1 4693898#0 4693898#1 4693898#2 4693898#3 142517768#0 142517768#1 142517768#3 142517768#4 142517768#6 142517768#7 142356191#2 142356191#3 142356191#4 149357425#0 149357439 -142519288#1 -142519288#0 -138419767#1 -138419767#0"/>
    </vehicle>
    <vehicle id="bike10" type="bicycle" depart="145.29" departLane="best">
        <route edges="4824703#1 4824703#2 4824703#5 4824702#1 4824702#2 132964155#0 132964155#1 211674510 314789435#1 84657864#0 84657864#1 84657864#2 314789430 84657872#0 84657872#1 152445636#0 152445636#1 152445636#2 152445636#3 4726265"/>
    </vehicle>
    <vehicle id="bike11" type="bicycle" depart="159.82" departLane="best">
        <route edges="140772448#3 140772448#4 140772448#5 153897364#5 153897364#6 153897364#7 153897364#8 314789414 66227390#0 66227390#2 4726268 450074239 4824557#0 4824557#1 148711386 209114498#0 209114498#1 142517768#0 142517768#1 142517768#3 142517768#4 142517768#6 142517768#7 142356191#2 142356191#3 4221194#0 4221194#1 4221194#2 4221194#3 4824568#0 130784151#1 130764246#0"/>
    </vehicle>
    <vehicle id="bike12" type="bicycle" depart="174.35" departLane="best">
        <route edges="84657869#0 84657869#1 84657869#2 314789432 138347505#0 138347505#2 314789437#0 314789437#1 314789437#2 142517770 27729257#0 27729257#1 314789430 84657872#0 84657872#1 4693898#0 4693898#1 4693898#2 4693898#3 142517768#0 142517768#1 142517768#3 142517768#4 142517768#6 142517768#7 142517768#8"/>
    </vehicle>
    <vehicle id="bike13" type="bicycle" depart="188.88" departLane="best">
        <route edges="-4218501#0 4828840#0 4828840#1 4828840#2 4828840#3 149539965#4 371146247 371146249 4218426#4 314789432 138347505#0 138347505#2 314789437#0 314789437#1 314789437#2 138347498 314789433#0 4824697#0 4824697#1 4824697#2 4824697#3 -4824702#2"/>
    </vehicle>
    <vehicle id="bike14" type="bicycle" depart="203.41" departLane="best">
        <route edges="4828723#3 84657865 98428996#0 98428996#1 98428996#2 -371146256 371146256 84657867 314994947#0 314994947#1 138347498 314789433#0 314789433#1 314789433#4 66227388#0 66227388#1 4726271#0 4726271#1 138347489#0 138347489#1 37307581#1"/>
    </vehicle>
    <vehicle id="bike15" type="bicycle" depart="217.94" departLane="best">
        <route edges="4824703#2 4824703#5 4824702#1 4824702#2 132964155#0 132964155#1 211674510 314789435#1 84657864#0 84657864#1 84657864#2 314789430 84657872#0 84657872#1 4693898#0 4693898#1 4693898#2 4693898#3 142517768#0 142517768#1 142517768#3 142517768#4 142517768#6 142517768#7 142356191#2 142356191#3 4221194#0 4760369#1"/>
    </vehicle>
    <vehicle id="bike16" type="bicycle" depart="232.47" departLane="best">
        <route edges="265499406#1 439027698#0 439027698#1 314789427 88111450 138478958#3 4756454#1 314789426#1 314789426#2 314789426#3 314789428#0 314789428#1 137275200#0 137275200#1 4652507#0 4652507#1 4652507#2 4652507#3 450074243 90697744"/>
    </vehicle>
    <vehicle id="bike20" type="bicycle" depart="290.59" departLane="best">
        <route edges="4693898#0 4693898#1 4693898#2 4693898#3 142517768#0 142517768#1 142517768#3 142517768#4 -142517768#5"/>
    </vehicle>
    <vehicle id="bike21" type="bicycle" depart="305.12" departLane="best">
        <route edges="138347489#2 138347489#3 138347489#4 140772448#0 140772448#1 140772448#2"/>
    </vehicle>
    <vehicle id="bike23" type="bicycle" depart="334.17" departLane="best">
        <route edges="-4693898#2 -4693898#1 -4693898#0 152445636#0 152445636#1 152445636#2 152445636#3 4726265 665610741 450074244 209114514#0 209114514#1 -140772396#7 140772396#7"/>
    </vehicle>
    <vehicle id="bike25" type="bicycle" depart="363.23" departLane="best">
        <route edges="142517768#0 142517768#1 142517768#3 142517768#4 142517768#6 142517768#7 142356191#2 142356191#3 142356191#4 149357425#0 149357439 -142519288#1 -142519288#0 -138419767#1 -138419767#0 138478958#3 138478958#4 138478958#5 138347529#0 138347529#1"/>
    </vehicle>
    <vehicle id="bike27" type="bicycle" depart="392.29" departLane="best">
        <route edges="4221194#4 4221194#5 209114498#0 209114498#1 142517768#0 142517768#1 142517768#3 142517768#4 142517768#6 142517768#7 142356191#2 142356191#3 142356191#4 149357425#0 149357439 -142519288#1 -142519288#0 -138419767#1 395869969"/>
    </vehicle>
    <vehicle id="bike28" type="bicycle" depart="406.82" departLane="best">
        <route edges="-96136747#1 -96136747#0 96136747#0 96136747#1 371146256 84657867 314994947#0 314994947#1 142517770 27729257#0 27729257#1 314789430 84657872#0 84657872#1 4693898#0 4693898#1 4693898#2 4693898#3 142517768#0 142517768#1 142517768#3 142517768#4 142517768#6 142517768#7 142356191#2 142356191#3 4221194#0 4760369#1"/>
    </vehicle>
    <vehicle id="bike30" type="bicycle" depart="435.88" departLane="best">
        <route edges="98428996#0 98428996#1 98428996#2 -371146256 371146256 84657867 314994947#0 314994947#1 138347498 314789433#0 314789433#1 314789433#4 66227388#0 66227388#1 27557419#0 27557419#1 27557419#2 27557419#3 90697745 335993897 265499402#0 265499402#1 265499402#2 265499402#3 265499402#4 138419768#0 138419768#1 438648464"/>
    </vehicle>
    <vehicle id="bike32" type="bicycle" depart="464.94" departLane="best">
        <route edges="4828723#1 84657870#0 84657870#1 84657870#2 84657869#2 314789432 138347505#0 138347505#2 314789437#0 314789437#1 314789437#2 138347498 314789433#0 4824697#0"/>
    </vehicle>
    <vehicle id="bike33" type="bicycle" depart="479.47" departLane="best">
        <route edges="138347489#3 138347489#4 140772448#0 140772448#1 140772448#2 140772448#3 140772448#4 140772448#5 153897364#5 153897364#6 153897364#7 153897364#8 314789414 66227390#0 66227390#2 209114515#0 209114515#1 140772396#7 140772396#8 140772396#9 -140772396#9"/>
    </vehicle>
    <vehicle id="bike34" type="bicycle" depart="494.00" departLane="best">
        <route edges="140772396#10 -140772396#10 -140772396#9 -140772396#8 -140772396#7 -140772396#6 -140772396#5 -140772396#4 -140772396#3 140772396#3"/>
    </vehicle>
    <vehicle id="bike36" type="bicycle" depart="523.06" departLane="best">
        <route edges="4836593 84657862#2 4828724#0 4828724#1 4828724#2 84657870#1 84657870#2 84657869#2 314789432 138347505#0 138347505#2 314789437#0 314789437#1 314789437#2 142517770 27729257#0 27729257#1 314789430 84657872#0 84657872#1 4693898#0 4693898#1 4693898#2 4693898#3 142517766#0"/>
    </vehicle>
    <vehicle id="bike37" type="bicycle" depart="537.59" departLane="best">
        <route edges="43324938#2 43324938#3 132964155#0 132964155#1 211674510 314789435#1 84657864#0 84657864#1 84657864#2 314789430 84657872#0 84657872#1 152445636#0"/>
    </vehicle>
    <vehicle id="bike38" type="bicycle" depart="552.12" departLane="best">
        <route edges="671832297#0 -671832297#0 153897364#7 153897364#8 314789414 66227390#0 66227390#2 209114515#0 209114515#1 140772396#7 209114514#2 209114514#3 439942512 335993897 265499402#0 265499402#1 265499402#2 265499402#3 265499402#4 138419768#0 209114520#7 209114520#8 209114520#9 209114520#10 209114520#11 209114520#12"/>
    </vehicle>
    <vehicle id="bike40" type="bicycle" depart="581.17" departLane="best">
        <route edges="314789414 66227390#0 66227390#2 4726268 450074239 4824557#0 4824557#1 148711386 209114498#0 209114498#1 142517768#0 142517768#1 142517768#3 142517768#4 142517768#6 142517768#7 142356191#2 142356191#3 142356191#4 149357425#0 149357439 -142519288#1 -142519288#0 -138419767#1 -138419767#0 138478958#3 138478958#4"/>
    </vehicle>
    <vehicle id="bike41" type="bicycle" depart="595.70" departLane="best">
        <route edges="314789432 138347505#0 138347505#2 314789437#0 314789437#1 314789437#2 142517770 27729257#0 27729257#1 314789430 84657872#0 84657872#1 152445636#0 152445636#1 152445636#2 152445636#3 4726265 665610741"/>
    </vehicle>
    <vehicle id="bike42" type="bicycle" depart="610.23" departLane="best">
        <route edges="148711386 209114498#0 209114498#1 -4693898#3 -4693898#2 -4693898#1 -4693898#0 152445636#0 152445636#1 152445636#2 152445636#3 4726265 665610741 450074244 209114514#0 209114514#1 209114514#2 209114514#3 439942512 335993897 209114516 209114520#0 209114520#1 209114520#2 209114520#3 138419764"/>
    </vehicle>
    <vehicle id="bike44" type="bicycle" depart="639.29" departLane="best">
        <route edges="-395869969 -138419767#0 130547039 130547038 4756455#4 4760369#0 4760369#1 4760369#2 -142517768#6"/>
    </vehicle>
    <vehicle id="bike45" type="bicycle" depart="653.82" departLane="best">
        <route edges="-4824695#1 132964155#0 132964155#1 211674510 314789435#1 84657864#0 84657864#1 84657864#2 314789430 84657872#0 84657872#1 4693898#0 4693898#1 4693898#2 4693898#3 142517768#0 142517768#1 142517768#3 142517768#4 142517768#6 142517768#7 142356191#2 142356191#3 4221194#0 4221194#1 4221194#2 4221194#3 4221194#4"/>
    </vehicle>
    <vehicle id="bike46" type="bicycle" depart="668.35" departLane="best">
        <route edges="4824697#3 132964155#0 132964155#1 211674510 314789435#1 84657864#0 84657864#1 84657864#2 314789430 84657872#0 84657872#1 152445636#0 152445636#1 152445636#2 152445636#3 4726265 665610741 209114497"/>
    </vehicle>
    <vehicle id="bike47" type="bicycle" depart="682.88" departLane="best">
        <route edges="-149540140#3 -149540140#2 -149540140#1 149540140#1"/>
    </vehicle>
    <vehicle id="bike49" type="bicycle" depart="711.94" departLane="best">
        <route edges="84657872#0 -84657872#0 4828723#0 4828723#1 4828723#2 4828723#3 84657865 98428996#0 98428996#1 98428996#2 -371146256 -4218501#1 -4218501#0 4828840#0 4828840#1 4828840#2 4828840#3 4828841#0 4828841#1"/>
    </vehicle>
    <vehicle id="bike52" type="bicycle" depart="755.53" departLane="best">
        <route edges="138419770 265499402#3 265499402#4 265499402#5 439027697"/>
    </vehicle>
    <vehicle id="bike53" type="bicycle" depart="770.06" departLane="best">
        <route edges="-4824698#0 -4824704#2 -4824704#1 -4824704#0 4824702#0 4824702#1 -682283993#4 -682283993#3 -682283993#2 -682283993#1 -682283993#0 138347489#4 140772448#0 140772448#1 140772448#2 140772448#3 140772448#4 140772448#5 153897364#5 153897364#6 153897364#7 153897364#8 314789414 66227390#0 66227390#2 209114515#0 209114515#1 140772396#7 209114514#2 209114514#3"/>
    </vehicle>
    <vehicle id="bike54" type="bicycle" depart="784.58" departLane="best">
        <route edges="209114498#0 209114498#1 -4693898#3 -4693898#2 -4693898#1 -4693898#0 152445636#0 152445636#1 152445636#2 152445636#3 4726265 665610741 450074244 209114514#0 209114514#1 -140772396#7 209114515#2 209114515#3 439942510 265499418 314789435#1 314789436#0 314789436#1 84657866#0 84657866#1 84657866#2 84657869#0 84657869#1"/>
    </vehicle>
    <vehicle id="bike55" type="bicycle" depart="799.11" departLane="best">
        <route edges="4834297 142517768#4 142517768#6 142517768#7 142356191#2 142356191#3 142356191#4 149357425#0 149357439 -142519288#1 -142519288#0 -138419767#1 -138419767#0 138478958#3 138478958#4 138478958#5"/>
    </vehicle>
    <vehicle id="bike58" type="bicycle" depart="842.70" departLane="best">
        <route edges="138478958#0 138478958#1 138478958#2 138478958#3 4756454#1 314789426#1 314789426#2 314789426#3 314789428#0 314789428#1 137275200#0 137275200#1 4652507#0 4652507#1 -140772396#8 209114514#2 209114514#3 439942512 335993897 265499402#0 265499402#1 265499402#2 265499402#3 265499402#4 138419768#0 138419768#1 438648464"/>
    </vehicle>
    <vehicle id="bike60" type="bicycle" depart="871.76" departLane="best">
        <route edges="4824568#0 130764244#1 4756455#2 -130547038 4756454#0 4756454#1 314789426#1"/>
    </vehicle>
    <vehicle id="bike62" type="bicycle" depart="900.82" departLane="best">
        <route edges="-130547038 4756454#0 4756454#1 314789426#1 314789426#2 314789426#3 314789428#0 314789428#1 137275200#0 137275200#1 4824557#0 4824557#1 148711386 209114498#0 209114498#1 142517768#0 142517768#1"/>
    </vehicle>
    <vehicle id="bike63" type="bicycle" depart="915.35" departLane="best">
        <route edges="-140772396#6 140772396#6 140772396#7 140772396#8 140772396#9 140772396#10 209114517 209114498#0 209114498#1 -4693898#3 -4693898#2 -4693898#1 -4693898#0 -84657872#1 -84657872#0 4828723#0 84657862#0"/>
    </vehicle>
    <vehicle id="bike64" type="bicycle" depart="929.88" departLane="best">
        <route edges="4877725 211674510 314789435#1 84657864#0 84657864#1 84657864#2 314789430 84657872#0 -84657872#0 4828723#0 4828723#1"/>
    </vehicle>
    <vehicle id="bike65" type="bicycle" depart="944.41" departLane="best">
        <route edges="138478958#4 138478958#5 138347529#0 130737743 138347514#0 138347514#1 314789426#3 314789428#0 314789428#1 137275200#0 137275200#1 4652507#0 4652507#1 4652507#2 4652507#3 450074243 90697744 265499418 314789435#1 4877725 314789433#4 66227388#0 66227388#1 4726271#0 4726271#1 138347489#0 138347489#1 138347489#2 138347489#3 138347489#4 138347489#5 138347489#6 4824703#1 4824703#2 149540140#0 -149540140#0"/>
    </vehicle>
    <vehicle id="bike66" type="bicycle" depart="958.94" departLane="best">
        <route edges="4836593 84657862#2 4828724#0 4828724#1 4828724#2 84657870#1 84657870#2 84657869#2 314789432 138347505#0 138347505#2 314789437#0 314789437#1 314789437#2 138347498 59851743#1 314789436#1 84657866#0 84657866#1 84657866#2"/>
    </vehicle>
    <vehicle id="bike67" type="bicycle" depart="973.47" departLane="best">
        <route edges="-37035107#1 -37035107#0 -142517768#5 -142517768#3 -142517768#2 -142517768#0 -4693898#3 -4693898#2 -4693898#1 -4693898#0 152445636#0 152445636#1 152445636#2 152445636#3 4726265 665610741 450074244 209114514#0 209114514#1 209114514#2 209114514#3 439942512 335993897 265499402#0 265499402#1 265499402#2 265499402#3 265499402#4 265499402#5 439027697 259409010#0"/>
    </vehicle>
    <vehicle id="bike72" type="bicycle" depart="1046.11" departLane="best">
        <route edges="152445636#1 152445636#2 152445636#3 140772410 209114517 209114498#0 209114498#1 142517768#0 142517768#1 142517768#3 142517768#4 142517768#6 142517768#7 142356191#2 142356191#3 4221194#0 4221194#1 4221194#2 4221194#3 4824568#0 4824568#2 138347514#0 138347529#2"/>
    </vehicle>
    <vehicle id="bike73" type="bicycle" depart="1060.64" departLane="best">
        <route edges="27557419#0 27557419#1 140772396#6 140772396#7 140772396#8 140772396#9 140772396#10 209114517 209114498#0 209114498#1 142517768#0 142517768#1 142517768#3 142517768#4 142517768#6 142517768#7 142356191#2 142356191#3 4221194#0 4760369#1"/>
    </vehicle>
    <vehicle id="bike74" type="bicycle" depart="1075.17" departLane="best">
        <route edges="130784151#1 130764246#0 130764246#1 314789428#0 314789428#1 137275200#0 137275200#1 4824557#0 4824557#1 148711386 209114498#0 209114498#1 142517768#0 142517768#1 142517768#3 142517768#4 142517768#6 142517768#7 142356191#2 142356191#3 142356191#4"/>
    </vehicle>
    <vehicle id="bike75" type="bicycle" depart="1089.70" departLane="best">
        <route edges="98428996#2 -371146256 371146256 84657867 314994947#0 314994947#1 138347498 314789433#0 314789433#1 314789433#4 66227388#0 66227388#1 27557419#0 27557419#1 140772396#6 140772396#7 209114514#2 209114514#3 439942512"/>
    </vehicle>
    <vehicle id="bike76" type="bicycle" depart="1104.23" departLane="best">
        <route edges="153897364#6 153897364#7 153897364#8 314789414 66227390#0 66227390#2 209114515#0 209114515#1 209114515#2 209114515#3 439942510 265499418 314789435#1 4877725 314789433#4 66227388#0 66227388#1 27557419#0"/>
    </vehicle>
    <vehicle id="bike77" type="bicycle" depart="1118.76" departLane="best">
        <route edges="-4824702#2 4824702#2 132964155#0 132964155#1 211674510 314789435#1 84657864#0 84657864#1 84657864#2 314789430 84657872#0 84657872#1 4693898#0 4693898#1 4693898#2 4693898#3 142517768#0 142517768#1 142517768#3 142517768#4 142517768#6 142517768#7 142356191#2 142356191#3 142356191#4 149357425#0 149357439 -142519288#1 -142519288#0 -138419767#1 138419767#1"/>
    </vehicle>
    <vehicle id="bike78" type="bicycle" depart="1133.29" departLane="best">
        <route edges="140772448#2 140772448#3 140772448#4 140772448#5 153897364#5 153897364#6 153897364#7 153897364#8 314789414 66227390#0 66227390#2 209114515#0 209114515#1 140772396#7 209114514#2 209114514#3 439942512 335993897"/>
    </vehicle>
    <vehicle id="bike79" type="bicycle" depart="1147.82" departLane="best">
        <route edges="138347489#3 138347489#4 140772448#0 140772448#1 140772448#2 140772448#3 140772448#4 140772448#5 153897364#5 153897364#6 153897364#7 153897364#8 314789414 66227390#0 66227390#2 209114515#0 209114515#1 140772396#7 209114514#2 209114514#3 439942512 335993897 209114516 209114520#0 209114520#1 209114520#2 209114520#3 138419764"/>
    </vehicle>
    <vehicle id="bike80" type="bicycle" depart="1162.35" departLane="best">
        <route edges="-153897385 43324938#2 43324938#3 132964155#0 132964155#1 211674510 314789435#1 84657864#0 84657864#1 84657864#2 314789430 84657872#0 84657872#1 4693898#0 4693898#1 4693898#2 4693898#3 142517768#0 142517768#1 142517768#3 142517768#4 142517768#6 142517768#7 142356191#2 142356191#3 4221194#0 4221194#1 4221194#2 4221194#3 4221194#4 4221194#5"/>
    </vehicle>
    <vehicle id="bike81" type="bicycle" depart="1176.88" departLane="best">
        <route edges="138347489#3 138347489#4 140772448#0 140772448#1 140772448#2 140772448#3 140772448#4 140772448#5 153897364#5 153897364#6 671832297#0 671832297#1"/>
    </vehicle>
    <vehicle id="bike82" type="bicycle" depart="1191.41" departLane="best">
        <route edges="4828726#1 4828724#0 4828724#1 4828724#2 84657870#1 84657870#2 84657869#2 314789432 138347505#0 138347505#2 98428996#0 98428996#1 98428996#2 -371146256"/>
    </vehicle>
    <vehicle id="bike83" type="bicycle" depart="1205.94" departLane="best">
        <route edges="138347498 59851743#1 59851743#2 59851743#3 84657864#2 314789430 84657872#0 84657872#1 4693898#0 4693898#1 4693898#2 4693898#3 142517768#0 142517768#1 142517768#3 142517768#4 142517768#6 142517768#7 142517768#8 142517768#10 454115422#0 454115422#1 454115422#2 454115422#3 454115422#4"/>
    </vehicle>
    <vehicle id="bike84" type="bicycle" depart="1220.46" departLane="best">
        <route edges="132964155#0 132964155#1 211674510 314789435#1 84657864#0 84657864#1 84657864#2 314789430 84657872#0 84657872#1 4693898#0 4693898#1 4693898#2 4693898#3 142517768#0 -142517768#0 -4693898#3 -4693898#2 -4693898#1 -4693898#0 -84657872#1"/>
    </vehicle>
    <vehicle id="bike85" type="bicycle" depart="1234.99" departLane="best">
        <route edges="84657862#1 84657862#2 4828724#0 4828724#1 4828724#2 84657870#1 84657870#2 84657869#2 314789432 138347505#0 138347505#2 314789437#0 314789437#1 314789437#2 138347498 59851743#1 314789436#1"/>
    </vehicle>
    <vehicle id="bike86" type="bicycle" depart="1249.52" departLane="best">
        <route edges="209114515#3 439942510 265499418 314789435#1 4877725 314789433#4 66227388#0 66227388#1 4726271#0 4726271#1 43324938#1 43324938#2 43324938#3 -4824702#2 -4824702#1 -4824702#0 4824704#0 4824704#1 4824704#2 4824698#0"/>
    </vehicle>
    <vehicle id="bike87" type="bicycle" depart="1264.05" departLane="best">
        <route edges="4824703#2 4824703#5 4824702#1 -682283993#4 -682283993#3 -682283993#2 -682283993#1 -682283993#0 138347489#4 138347489#5 138347489#6"/>
    </vehicle>
    <vehicle id="bike88" type="bicycle" depart="1278.58" departLane="best">
        <route edges="-4693898#0 152445636#0 152445636#1 152445636#2 152445636#3 4726265 665610741 450074244 209114514#0 209114514#1"/>
    </vehicle>
    <vehicle id="bike89" type="bicycle" depart="1293.11" departLane="best">
        <route edges="152445636#2 152445636#3 4726265 665610741 450074244 209114514#0 209114514#1 209114514#2 209114514#3 439942512 335993897 209114516 209114520#0 209114520#1 209114520#2 209114520#3 209114520#4"/>
    </vehicle>
    <vehicle id="bike90" type="bicycle" depart="1307.64" departLane="best">
        <route edges="4756454#0 4756454#1 314789426#1 314789426#2 314789426#3 314789428#0 314789428#1 137275200#0 137275200#1 4652507#0"/>
    </vehicle>
    <vehicle id="bike91" type="bicycle" depart="1322.17" departLane="best">
        <route edges="96136747#1 371146256 84657867 314994947#0 314994947#1 138347498 314789433#0 4824697#0 4824697#1 4824697#2 4824697#3 -4824702#2"/>
    </vehicle>
    <vehicle id="bike92" type="bicycle" depart="1336.70" departLane="best">
        <route edges="149357439 -142519288#1 -142519288#0 -138419767#1 -138419767#0 138478958#3 4756454#1 314789426#1 314789426#2 314789426#3 314789428#0 314789428#1 137275200#0 137275200#1 4652507#0 4652507#1 4652507#2 4652507#3 450074243 90697744 265499418 314789435#1 314789436#0 314789436#1 84657866#0 84657866#1 84657866#2 84657865 98428996#0 98428996#1 98428996#2 -371146256 142517769#0"/>
    </vehicle>
    <vehicle id="bike94" type="bicycle" depart="1365.76" departLane="best">
        <route edges="130764244#0 130784151#1 130764246#0 130764246#1 314789428#0 314789428#1 137275200#0 137275200#1 4652507#0 4652507#1 140772396#9 140772396#10 209114517"/>
    </vehicle>
    <vehicle id="bike95" type="bicycle" depart="1380.29" departLane="best">
        <route edges="152445636#1 152445636#2 152445636#3 4726265 665610741 450074244 209114514#0 209114514#1 140772396#8"/>
    </vehicle>
    <vehicle id="bike97" type="bicycle" depart="1409.35" departLane="best">
        <route edges="171934808#0 171934808#4 171934808#5 -84657872#1 -84657872#0 4828723#0 4828723#1 4828723#2 4828723#3 84657865 98428996#0 98428996#1 98428996#2 -371146256 -4218501#1 -4218501#0 4828840#0 4828840#1 4828840#2 4828840#3 4828841#0 4828841#1"/>
    </vehicle>
    <vehicle id="bike98" type="bicycle" depart="1423.88" departLane="best">
        <route edges="27729257#1 314789430 84657872#0 84657872#1 4693898#0 4693898#1 4693898#2 4693898#3 142517768#0 142517768#1 142517768#3 142517768#4 142517768#6 142517768#7 -142517768#7"/>
    </vehicle>
    <vehicle id="bike103" type="bicycle" depart="1496.52" departLane="best">
        <route edges="149357425#0 149357439 -142519288#1 -142519288#0 -138419767#1 -138419767#0 138478958#3 4756454#1 314789426#1 314789426#2 314789426#3 314789428#0 314789428#1 137275200#0 137275200#1 4652507#0 4652507#1 4652507#2 4652507#3 450074243 90697744 265499418 314789435#1 4877725 314789433#4 66227388#0 66227388#1 4726271#0 4726271#1 138347489#0 138347489#1 138347489#2 138347489#3 138347489#4 138347489#5 138347489#6 4824703#1 4824703#2 149540140#0 -149540140#0"/>
    </vehicle>
    <vehicle id="bike104" type="bicycle" depart="1511.05" departLane="best">
        <route edges="142517768#4 -142517768#5 -142517768#3 -142517768#2 -142517768#0 -4693898#3 -4693898#2 -4693898#1 -4693898#0 -84657872#1 -84657872#0 4828723#0 4828723#1 4828723#2 4828723#3 84657865 98428996#0"/>
    </vehicle>
    <vehicle id="bike106" type="bicycle" depart="1540.11" departLane="best">
        <route edges="209114498#1 -4693898#3 -4693898#2 -4693898#1 -4693898#0 152445636#0 152445636#1 152445636#2 152445636#3 4726265 665610741 209114497"/>
    </vehicle>
    <vehicle id="bike107" type="bicycle" depart="1554.64" departLane="best">
        <route edges="84657869#0 84657869#1 84657869#2 314789432 138347505#0 138347505#2 314789437#0 314789437#1 314789437#2 142517770 27729257#0 27729257#1 314789430 84657872#0 84657872#1 4693898#0 4693898#1 4693898#2 4693898#3 142517768#0 142517768#1 142517768#3 142517768#4 142517768#6 142517768#7 142517768#8 142517768#10 -142356187#1 -142356187#0 -142356185#1 98638605#2"/>
    </vehicle>
    <vehicle id="bike109" type="bicycle" depart="1583.70" departLane="best">
        <route edges="-682283993#4 -682283993#3 -682283993#2 -682283993#1 -682283993#0 138347489#4 140772448#0 140772448#1 140772448#2 140772448#3 140772448#4 140772448#5"/>
    </vehicle>
    <vehicle id="bike110" type="bicycle" depart="1598.23" departLane="best">
        <route edges="84657870#2 84657869#2 84657869#3 314789438#0"/>
    </vehicle>
    <vehicle id="bike111" type="bicycle" depart="1612.76" departLane="best">
        <route edges="27557419#1 140772396#6 140772396#7 140772396#8 140772396#9 140772396#10 209114517 209114498#0 209114498#1 142517768#0 142517768#1 142517768#3 142517768#4 142517768#6 142517768#7 142356191#2 142356191#3 4221194#0 4221194#1 4221194#2 4221194#3 4824567#0 4824567#1"/>
    </vehicle>
    <vehicle id="bike112" type="bicycle" depart="1627.29" departLane="best">
        <route edges="-149540140#0 4824703#5 4824702#1 4824702#2 132964155#0 132964155#1 211674510 314789435#1 314789436#0 314789436#1 84657866#0 84657866#1 84657866#2 84657865 98428996#0 98428996#1 98428996#2 -371146256 371146256 84657867 314994947#0"/>
    </vehicle>
    <vehicle id="bike114" type="bicycle" depart="1656.35" departLane="best">
        <route edges="-682284020 -4824704#0 4824702#0 4824702#1 4824702#2 132964155#0 132964155#1 211674510 314789435#1 84657864#0 84657864#1 84657864#2 314789430 84657872#0 -84657872#0 4828723#0 4828723#1 84657870#0"/>
    </vehicle>
    <vehicle id="bike115" type="bicycle" depart="1670.87" departLane="best">
        <route edges="-37035107#0 -142517768#5 -142517768#3 -142517768#2 -142517768#0 -4693898#3 -4693898#2 -4693898#1 -4693898#0 152445636#0 152445636#1 152445636#2 152445636#3 4726265 665610741 209114497 4726269 450074238 4726271#0 4726271#1 138347489#0 138347489#1 138347489#2 138347489#3 138347489#4"/>
    </vehicle>
    <vehicle id="bike116" type="bicycle" depart="1685.40" departLane="best">
        <route edges="314789436#0 59851743#2 59851743#3 84657864#2 314789430 84657872#0 84657872#1 4693898#0 4693898#1 4693898#2 4693898#3 142517768#0 142517768#1 142517768#3 142517768#4 142517768#6 142517768#7 142356191#2 142356191#3 4221194#0 4221194#1 4221194#2 4221194#3 4824568#0 130784151#1 130764246#0 130764246#1 314789428#0 314789428#1 137275200#0 137275200#1 4652507#0 4652507#1"/>
    </vehicle>
    <vehicle id="bike117" type="bicycle" depart="1699.93" departLane="best">
        <route edges="138347489#6 4824703#1 4824703#2 4824703#5 4824702#1 -682283993#4 -682283993#3 -682283993#2"/>
    </vehicle>
    <vehicle id="bike119" type="bicycle" depart="1728.99" departLane="best">
        <route edges="314789436#0 59851743#2 59851743#3 84657864#2 314789430 84657872#0 84657872#1 4693898#0 4693898#1 4693898#2 4693898#3 142517768#0 142517768#1 142517768#3 142517768#4 142517768#6 142517768#7 142356191#2 142356191#3 4221194#0"/>
    </vehicle>
    <vehicle id="bike120" type="bicycle" depart="1743.52" departLane="best">
        <route edges="149540140#2 -149540140#2 -149540140#1 -149540140#0 4824703#5 4824702#1 4824702#2 132964155#0 132964155#1 211674510 314789435#1 314789436#0 314789436#1 84657866#0 84657866#1 84657866#2 84657865 98428996#0 98428996#1 98428996#2 -371146256 371146256 84657867 314994947#0"/>
    </vehicle>