<?xml version="1.0" encoding="UTF-8"?>

<!-- generated on 07/14/20 20:17:46 by SUMO duarouter Version 0.32.0
<?xml version="1.0" encoding="UTF-8"?>

<configuration xmlns:xsi="http://www.w3.org/2001/XMLSchema-instance" xsi:noNamespaceSchemaLocation="http://sumo.dlr.de/xsd/duarouterConfiguration.xsd">

    <input>
        <net-file value="osm.net.xml"/>
        <route-files value="osm.passenger.trips.xml"/>
    </input>

    <output>
        <output-file value="osm.passenger.rou.xml"/>
        <alternatives-output value="osm.passenger.rou.alt.xml"/>
    </output>

    <processing>
        <ignore-errors value="true"/>
    </processing>

    <time>
        <begin value="0"/>
        <end value="3600.0"/>
    </time>

    <report>
        <no-warnings value="true"/>
        <no-step-log value="true"/>
    </report>

</configuration>
-->

<routes xmlns:xsi="http://www.w3.org/2001/XMLSchema-instance" xsi:noNamespaceSchemaLocation="http://sumo.dlr.de/xsd/routes_file.xsd">
    <vType id="passenger" speedFactor="normc(1.00,0.10,0.20,2.00)" vClass="passenger"/>
    <vehicle id="veh0" type="passenger" depart="0.00" departLane="best">
        <route edges="439027698#0 439027698#1 314789427 314789426#0 314789426#1 314789426#2 314789426#3 314789428#0 314789428#1 137275200#0 137275200#1 4824557#0 4824557#1 148711386 209114498#0 209114498#1 142517768#0 142517768#1 142517768#3 -142517768#3"/>
    </vehicle>
    <vehicle id="veh3" type="passenger" depart="24.95" departLane="best">
        <route edges="54170891#0 54170891#1 -142517768#5 -142517768#3 -142517768#2 -142517768#0 -4693898#3 -4693898#2 -4693898#1 -4693898#0 152445636#0 152445636#1 152445636#2 152445636#3 4726265 665610741 209114497 4726269 450074238 4726271#0 4726271#1 138347489#0 138347489#1 138347489#2 138347489#3 138347489#4 138347489#5 138347489#6 4824703#1 4824703#2 4824703#5 -4824702#0 4824704#0 4824704#1 4824704#2 4824704#3 -4824704#3"/>
    </vehicle>
    <vehicle id="veh6" type="passenger" depart="49.91" departLane="best">
        <route edges="-142517768#10 -142517768#9 -142517768#7 -142517768#6 -142517768#5 -142517768#3 -142517768#2 -142517768#0 -4693898#3 -4693898#2 -4693898#1 -4693898#0 152445636#0 152445636#1 152445636#2 152445636#3 4726265 665610741 450074244 209114514#0 209114514#1 209114514#2 209114514#3 439942512 335993897 265499402#0 265499402#1 265499402#2 265499402#3 265499402#4 138419768#0 138419768#1"/>
    </vehicle>
    <vehicle id="veh7" type="passenger" depart="58.23" departLane="best">
        <route edges="450074238 4726271#0 4726271#1 43324938#1 43324938#2 43324938#3 4824695#1 4824708 96136748#0 96136748#1 96136747#0 96136747#1 371146256 84657867 314994947#0 314994947#1 142517770 27729257#0 27729257#1 314789430 84657872#0 84657872#1 4693898#0 4693898#1 4693898#2 4693898#3 142517768#0 142517768#1 142517768#3 142517768#4 37035107#0 37035107#1"/>
    </vehicle>
    <vehicle id="veh9" type="passenger" depart="74.86" departLane="best">
        <route edges="4824704#3 -4824704#3 4824698#0 4824698#1 4824698#2 4824708 96136748#0 96136748#1 96136747#0 96136747#1 371146256 84657867 314994947#0 314994947#1 142517770 27729257#0 27729257#1 314789430 84657872#0 84657872#1 4693898#0 4693898#1 4693898#2 4693898#3 142517768#0 142517768#1 142517768#3 142517768#4 142517768#6 142517768#7 142356191#2 142356191#3 4221194#0 4221194#1 4221194#2 4221194#3 4824568#0 130784151#1 130764246#0 130764246#1 -130764246#1"/>
    </vehicle>
    <vehicle id="veh10" type="passenger" depart="83.18" departLane="best">
        <route edges="4824704#2 4824698#0 4824698#1 4824698#2 4824708 96136748#0 96136748#1 96136747#0 96136747#1 371146256 84657867 314994947#0 314994947#1 142517770 27729257#0 27729257#1 314789430 84657872#0 84657872#1 4693898#0 4693898#1 4693898#2 4693898#3 142517768#0 142517768#1 142517768#3 142517768#4 142517768#6 142517768#7 142356191#2 142356191#3 4221194#0 4760369#1 4760369#2"/>
    </vehicle>
    <vehicle id="veh11" type="passenger" depart="91.50" departLane="best">
        <route edges="142519288#1 -142519288#1 -142519288#0 -138419767#1 -138419767#0 130547039 4756454#0 4756454#1 314789426#1 314789426#2 314789426#3 314789428#0 314789428#1 137275200#0 137275200#1 4652507#0 4652507#1 4652507#2 4652507#3 450074243 90697744 265499418 314789435#1 4877725 314789433#4 66227388#0 66227388#1 4726271#0 4726271#1 138347489#0 138347489#1 138347489#2 138347489#3 138347489#4"/>
    </vehicle>
    <vehicle id="veh12" type="passenger" depart="99.82" departLane="best">
        <route edges="84657869#2 314789432 138347505#0 138347505#2 314789437#0 314789437#1 314789437#2 138347498 314789433#0 314789433#1 314789433#4 66227388#0 66227388#1 27557419#0 27557419#1 27557419#2 27557419#3 90697745 335993897 265499402#0 265499402#1 265499402#2 265499402#3 265499402#4 138419768#0 138419768#1 438648464 150276881"/>
    </vehicle>
    <vehicle id="veh13" type="passenger" depart="108.14" departLane="best">
        <route edges="4824704#2 4824698#0 4824698#1 4824698#2 4824708 96136748#0 96136748#1 96136747#0 96136747#1 371146256 84657867 314994947#0 314994947#1 142517770 27729257#0 27729257#1 314789430 84657872#0 84657872#1 4693898#0 4693898#1 4693898#2 4693898#3 142517768#0 142517768#1 4824567#2 4824567#3"/>
    </vehicle>
    <vehicle id="veh14" type="passenger" depart="116.45" departLane="best">
        <route edges="153897364#2 153897364#5 153897364#6 153897364#7 153897364#8 314789414 66227390#0 66227390#2 209114515#0 209114515#1 209114515#2 209114515#3 439942510 265499418 314789435#1 314789436#0 314789436#1 84657866#0 84657866#1 84657866#2 84657865 98428996#0 98428996#1 98428996#2 -371146256 142517769#0 142517769#1 142517769#2 371146247 371146249"/>
    </vehicle>
    <vehicle id="veh15" type="passenger" depart="124.77" departLane="best">
        <route edges="4824712 627278687 149540118 627278688 -4824707 4824708 96136748#0 96136748#1 96136747#0 96136747#1 371146256 84657867 314994947#0 314994947#1 142517770 27729257#0 27729257#1 314789430 84657872#0 84657872#1 4693898#0 4693898#1 4693898#2 4693898#3 142517768#0 142517768#1 142517768#3 142517768#4 142517768#6 142517768#7 142356191#2 142356191#3 4221194#0 4221194#1 4221194#2 4221194#3 4824568#0 130784151#1 130764246#0 130764246#1 314789428#0 314789428#1 137275200#0 137275200#1 4652507#0 4652507#1"/>
    </vehicle>
    <vehicle id="veh17" type="passenger" depart="141.41" departLane="best">
        <route edges="137275200#0 137275200#1 4824557#0 4824557#1 148711386 209114498#0 209114498#1 142517768#0 142517768#1 142517768#3 142517768#4 142517768#6 142517768#7 142356191#2 142356191#3 142356191#4 149357425#0 149357439"/>
    </vehicle>
    <vehicle id="veh18" type="passenger" depart="149.73" departLane="best">
        <route edges="-4824572 4824573#0 4824573#1 4824573#2 4824573#3 153897364#2 153897364#5 153897364#6 153897364#7 153897364#8 314789414 66227390#0 66227390#2 4726268 450074239 4824557#0 4824557#1 148711386 209114498#0 209114498#1 142517768#0 142517768#1 142517768#3 142517768#4 142517768#6 142517768#7 142356191#2 142356191#3 142356191#4 149357425#0 149357425#1"/>
    </vehicle>
    <vehicle id="veh19" type="passenger" depart="158.04" departLane="best">
        <route edges="438898636 4824702#0 4824702#1 4824702#2 4824695#1 4824708 96136748#0 96136748#1 96136747#0 96136747#1 371146256 84657867 314994947#0 314994947#1 142517770 27729257#0 27729257#1 314789430 84657872#0 84657872#1 152445636#0 152445636#1 152445636#2 152445636#3 4726265 665610741 209114497"/>
    </vehicle>
    <vehicle id="veh21" type="passenger" depart="174.68" departLane="best">
        <route edges="138419767#1 -138419767#1 -138419767#0 130547039 4756454#0 4756454#1 314789426#1 314789426#2 314789426#3 314789428#0 314789428#1 137275200#0 137275200#1 4652507#0 4652507#1 4652507#2 4652507#3 450074243 90697744 265499418 314789435#1 314789436#0 314789436#1 84657866#0 84657866#1 84657866#2 84657869#0"/>
    </vehicle>
    <vehicle id="veh22" type="passenger" depart="183.00" departLane="best">
        <route edges="130528361#0 130528361#1 -142517768#3 -142517768#2 -142517768#0 -4693898#3 -4693898#2 -4693898#1 -4693898#0 152445636#0 152445636#1 152445636#2 152445636#3 4726265 665610741 450074244 209114514#0 209114514#1 209114514#2 209114514#3"/>
    </vehicle>
    <vehicle id="veh23" type="passenger" depart="191.32" departLane="best">
        <route edges="98428996#0 98428996#1 98428996#2 -371146256 371146256 84657867 314994947#0 314994947#1 138347498 314789433#0 314789433#1 314789433#4 66227388#0 66227388#1 27557419#0 27557419#1 27557419#2 27557419#3 90697745 335993897 265499402#0 265499402#1 265499402#2 265499402#3 265499402#4 138419768#0 138419768#1 438648464 4723926"/>
    </vehicle>
    <vehicle id="veh25" type="passenger" depart="207.95" departLane="best">
        <route edges="4828723#1 84657870#0 84657870#1 84657870#2 84657869#2 314789432 138347505#0 138347505#2 314789437#0 314789437#1 314789437#2 138347498 314789433#0 4824697#0 4824697#1 4824697#2 4824697#3 -4824702#2 -4824702#1 4824703#6 4824703#7 4824703#8 -4824698#1 4824698#1"/>
    </vehicle>
    <vehicle id="veh26" type="passenger" depart="216.27" departLane="best">
        <route edges="137275200#0 137275200#1 4824557#0 4824557#1 148711386 209114498#0 209114498#1 142517768#0 142517768#1 142517768#3 142517768#4 142517768#6 142517768#7 -142517768#7"/>
    </vehicle>
    <vehicle id="veh27" type="passenger" depart="224.59" departLane="best">
        <route edges="142517768#3 142517768#4 142517768#6 142517768#7 142356191#2 142356191#3 142356191#4 149357425#0 149357439 -142519288#1 -142519288#0 142519288#0"/>
    </vehicle>
    <vehicle id="veh29" type="passenger" depart="241.23" departLane="best">
        <route edges="450074244 209114514#0 209114514#1 209114514#2 209114514#3 439942512 335993897 265499402#0 265499402#1 265499402#2 265499402#3 265499402#4 265499402#5 439027697 259409010#0 259409010#1"/>
    </vehicle>
    <vehicle id="veh31" type="passenger" depart="257.86" departLane="best">
        <route edges="138419767#0 -138419767#0 130547039 4756454#0 4756454#1 314789426#1 314789426#2 314789426#3 314789428#0 314789428#1 137275200#0 137275200#1 4824557#0 4824557#1 148711386 209114498#0 209114498#1 142517768#0 142517768#1 142517768#3 142517768#4"/>
    </vehicle>
    <vehicle id="veh32" type="passenger" depart="266.18" departLane="best">
        <route edges="4218426#4 314789432 138347505#0 138347505#2 314789437#0 314789437#1 314789437#2 138347498 314789433#0 314789433#1 314789433#4 66227388#0 66227388#1"/>
    </vehicle>
    <vehicle id="veh34" type="passenger" depart="282.82" departLane="best">
        <route edges="-4693898#1 -4693898#0 -84657872#1 -84657872#0 4828723#0 4828723#1 4828723#2 4828723#3 84657865 98428996#0 98428996#1 98428996#2 -371146256"/>
    </vehicle>
    <vehicle id="veh35" type="passenger" depart="291.14" departLane="best">
        <route edges="-4824695#1 4824695#1 4824708 96136748#0 96136748#1 96136747#0 96136747#1 371146256 84657867 314994947#0 314994947#1 142517770 27729257#0 27729257#1 314789430 84657872#0 84657872#1 4693898#0"/>
    </vehicle>
    <vehicle id="veh36" type="passenger" depart="299.45" departLane="best">
        <route edges="4824703#5 4824702#1 4824702#2 4824695#1 4824708 96136748#0 96136748#1 96136747#0 96136747#1 371146256 84657867 314994947#0 314994947#1 142517770 27729257#0 27729257#1 314789430 84657872#0 84657872#1 4693898#0 4693898#1 4693898#2 4693898#3 142517768#0 142517768#1 142517768#3 142517768#4 142517768#6 142517768#7 142356191#2 142356191#3 4221194#0 4221194#1 4756456 4756455#2 4756455#4 260923013#0 260923013#1"/>
    </vehicle>
    <vehicle id="veh37" type="passenger" depart="307.77" departLane="best">
        <route edges="-260923013#1 -260923013#0 4760369#0 4221194#1 4221194#2 4221194#3 4221194#4 4221194#5 209114498#0 209114498#1 -4693898#3 -4693898#2 -4693898#1 -4693898#0 152445636#0 152445636#1 152445636#2 152445636#3 4726265 665610741 450074244 209114514#0 209114514#1 209114514#2 209114514#3"/>
    </vehicle>
    <vehicle id="veh39" type="passenger" depart="324.41" departLane="best">
        <route edges="84657872#1 4693898#0 4693898#1 4693898#2 4693898#3 142517768#0 -142517768#0 -4693898#3 -4693898#2 -4693898#1 -4693898#0 -84657872#1 -84657872#0 4828723#0 4828723#1 4828723#2 4828723#3 84657865 98428996#0 98428996#1 98428996#2 -371146256 -4218501#1 -4218501#0 4828840#0 4828840#1 4828840#2"/>
    </vehicle>
    <vehicle id="veh40" type="passenger" depart="332.73" departLane="best">
        <route edges="-138419767#1 -138419767#0 130547039 4756454#0 4756454#1 314789426#1 314789426#2 314789426#3 314789428#0 314789428#1 137275200#0 137275200#1 4824557#0 4824557#1"/>
    </vehicle>
    <vehicle id="veh41" type="passenger" depart="341.04" departLane="best">
        <route edges="-4824698#0 -4824704#2 -4824704#1 -4824704#0 4824702#0 4824702#1 4824702#2 132964155#0 132964155#1 314789433#4 66227388#0 66227388#1 27557419#0 27557419#1 27557419#2 27557419#3 90697745 335993897 265499402#0 265499402#1 265499402#2 265499402#3 265499402#4"/>
    </vehicle>
    <vehicle id="veh42" type="passenger" depart="349.36" departLane="best">
        <route edges="265499406#0 265499406#1 439027698#0 439027698#1 314789427 314789426#0 314789426#1 314789426#2 314789426#3 314789428#0 314789428#1 137275200#0 137275200#1 4652507#0 4652507#1 4652507#2 4652507#3 450074243 90697744 265499418 314789435#1 84657864#0 84657864#1 84657864#2 314789430 84657872#0"/>
    </vehicle>
    <vehicle id="veh43" type="passenger" depart="357.68" departLane="best">
        <route edges="66227388#0 66227388#1 4726271#0 4726271#1 43324938#1 43324938#2 43324938#3 4824695#1 4824708 96136748#0 96136748#1 96136747#0 96136747#1 -4218501#1 -4218501#0 4828840#0 4828840#1 4828840#2 4828840#3 4828841#0 4828841#1"/>
    </vehicle>
    <vehicle id="veh44" type="passenger" depart="366.00" departLane="best">
        <route edges="142356191#3 4221194#0 4221194#1 4221194#2 4221194#3 4221194#4 4221194#5 209114498#0 209114498#1 -4693898#3 -4693898#2 -4693898#1 -4693898#0 152445636#0 152445636#1 152445636#2 152445636#3 4726265 665610741 450074244 209114514#0 209114514#1 209114514#2 209114514#3 439942512 335993897 265499402#0 265499402#1 265499402#2 265499402#3 265499402#4 138419768#0 138419768#1 438648464 4723926"/>
    </vehicle>
    <vehicle id="veh45" type="passenger" depart="374.32" departLane="best">
        <route edges="4221194#3 4221194#4 4221194#5 209114498#0 209114498#1 -4693898#3 -4693898#2 -4693898#1 -4693898#0 152445636#0 152445636#1 152445636#2 152445636#3 4726265 665610741 209114497 4726269 450074238 4726271#0 4726271#1 138347489#0 138347489#1 138347489#2 138347489#3"/>
    </vehicle>
    <vehicle id="veh46" type="passenger" depart="382.63" departLane="best">
        <route edges="4824695#2 4824698#2 4824708 96136748#0 96136748#1 96136747#0 96136747#1 371146256 84657867 314994947#0 314994947#1 142517770 27729257#0 27729257#1 314789430 84657872#0 84657872#1 4693898#0 4693898#1 4693898#2 4693898#3 142517768#0 142517768#1 142517768#3 142517768#4 37035107#0 37035107#1"/>
    </vehicle>
    <vehicle id="veh47" type="passenger" depart="390.95" departLane="best">
        <route edges="4824698#2 4824708 96136748#0 96136748#1 96136747#0 96136747#1 371146256 84657867 314994947#0 314994947#1"/>
    </vehicle>
    <vehicle id="veh49" type="passenger" depart="407.59" departLane="best">
        <route edges="4828840#2 4828840#3 149539965#4 371146247 371146249 4218426#4 314789432 138347505#0 138347505#2 314789437#0 314789437#1 314789437#2 142517770 27729257#0 27729257#1 314789430 84657872#0 -84657872#0 4828723#0 4828723#1 84657870#0"/>
    </vehicle>
    <vehicle id="veh51" type="passenger" depart="424.23" departLane="best">
        <route edges="-37035107#1 -37035107#0 -142517768#5 -142517768#3 -142517768#2 -142517768#0 -4693898#3 -4693898#2 -4693898#1 -4693898#0 152445636#0 152445636#1 152445636#2 152445636#3 4726265 665610741 209114497 4726269 450074238 4726271#0 4726271#1 43324938#1 43324938#2 43324938#3 4824695#1"/>
    </vehicle>
    <vehicle id="veh53" type="passenger" depart="440.86" departLane="best">
        <route edges="138419767#0 -138419767#0 130547039 4756454#0 4756454#1 314789426#1 314789426#2 314789426#3 314789428#0 314789428#1 137275200#0 137275200#1 4652507#0 4652507#1 4652507#2 4652507#3 450074243 90697744 265499418 314789435#1 314789436#0 314789436#1 84657866#0 84657866#1 84657866#2 84657865 98428996#0 98428996#1 98428996#2 -371146256 -4218501#1 -4218501#0 4828840#0 4828840#1 4828840#2 4828840#3 4828841#0 4828841#1"/>
    </vehicle>
    <vehicle id="veh55" type="passenger" depart="457.50" departLane="best">
        <route edges="314789436#0 314789436#1 84657866#0 84657866#1 84657866#2 84657869#0 84657869#1 84657869#2 314789432 138347505#0 138347505#2 314789437#0 314789437#1 314789437#2 142517770 27729257#0 27729257#1 314789430 84657872#0 84657872#1 4693898#0 4693898#1 4693898#2 4693898#3 142517768#0 142517768#1 4824567#2 4824567#3"/>
    </vehicle>
    <vehicle id="veh57" type="passenger" depart="474.13" departLane="best">
        <route edges="98428996#2 -371146256 371146256 84657867 314994947#0 314994947#1 138347498 314789433#0 314789433#1 314789433#4 66227388#0 66227388#1 27557419#0 27557419#1 27557419#2 27557419#3 90697745 335993897 265499402#0 265499402#1 265499402#2 265499402#3 265499402#4 138419768#0 138419768#1 438648464 4723926"/>
    </vehicle>
    <vehicle id="veh58" type="passenger" depart="482.45" departLane="best">
        <route edges="260923013#0 -260923013#0 4760369#0 4221194#1 4221194#2 4221194#3 4221194#4 4221194#5 209114498#0 209114498#1 -4693898#3 -4693898#2 -4693898#1 -4693898#0 -84657872#1 -84657872#0 4828723#0 4828723#1 84657870#0 84657870#1 84657870#2 84657869#2 84657869#3 314789438#0"/>
    </vehicle>
    <vehicle id="veh59" type="passenger" depart="490.77" departLane="best">
        <route edges="-4824702#2 4824702#2 4824695#1 4824708 96136748#0 96136748#1 96136747#0 96136747#1 371146256 84657867 314994947#0 314994947#1 142517770 27729257#0 27729257#1 314789430 84657872#0 84657872#1 4693898#0 4693898#1 4693898#2 4693898#3 142517766#0 142517766#1 142517766#2"/>
    </vehicle>
    <vehicle id="veh60" type="passenger" depart="499.09" departLane="best">
        <route edges="142519288#1 -142519288#1 -142519288#0 -138419767#1 -138419767#0 130547039 4756454#0 4756454#1 314789426#1 314789426#2 314789426#3 314789428#0 314789428#1 137275200#0 137275200#1 4652507#0 4652507#1 4652507#2 4652507#3 450074243 90697744 265499418 314789435#1 4877725 314789433#4 66227388#0 66227388#1 4726271#0 4726271#1 43324938#1 43324938#2"/>
    </vehicle>
    <vehicle id="veh61" type="passenger" depart="507.41" departLane="best">
        <route edges="4828726#0 4828726#1 4828724#0 4828724#1 4828724#2 84657870#1 84657870#2 84657869#2 314789432 138347505#0 138347505#2 314789437#0 314789437#1 314789437#2 138347498 314789433#0 4824697#0 4824697#1 4824697#2 4824697#3 -4824702#2 -4824702#1 4824703#6 4824703#7 4824703#8 -4824698#1"/>
    </vehicle>
    <vehicle id="veh62" type="passenger" depart="515.73" departLane="best">
        <route edges="138347489#2 138347489#3 138347489#4 138347489#5 138347489#6 4824703#1 4824703#2 4824703#5 4824702#1 4824702#2 4824695#1 4824708 96136748#0 96136748#1 96136747#0 96136747#1 371146256 84657867 314994947#0 314994947#1 142517770 27729257#0 27729257#1 314789430 84657872#0 84657872#1 4693898#0 4693898#1 4693898#2 4693898#3 142517768#0 142517768#1 142517768#3 142517768#4 142517768#6 142517768#7 142356191#2 142356191#3 142356191#4 149357425#0 149357439 -142519288#1 -142519288#0 -138419767#1 -138419767#0 130547039 4756454#0 4756454#1"/>
    </vehicle>
    <vehicle id="veh63" type="passenger" depart="524.04" departLane="best">
        <route edges="84657864#1 84657864#2 314789430 84657872#0 84657872#1 4693898#0 4693898#1 4693898#2 4693898#3 142517768#0 142517768#1 142517768#3 142517768#4 142517768#6 142517768#7 142356191#2 142356191#3 4221194#0"/>
    </vehicle>
    <vehicle id="veh64" type="passenger" depart="532.36" departLane="best">
        <route edges="4824704#2 4824698#0 4824698#1 4824698#2 4824708 96136748#0 96136748#1 96136747#0 96136747#1 371146256 84657867 314994947#0 314994947#1 142517770 27729257#0 27729257#1 314789430 84657872#0 84657872#1 4693898#0 4693898#1 4693898#2 4693898#3 142517768#0 142517768#1 142517768#3 142517768#4 142517768#6 142517768#7 142356191#2 142356191#3 142356191#4 149357425#0 149357439 -142519288#1 -142519288#0 -138419767#1 -138419767#0 138419767#0"/>
    </vehicle>
    <vehicle id="veh65" type="passenger" depart="540.68" departLane="best">
        <route edges="-4824572 4824573#0 4824573#1 4824573#2 4824573#3 153897364#2 153897364#5 153897364#6 153897364#7 153897364#8 314789414 38345628#0 38345628#1 265499402#0 265499402#1 265499402#2 265499402#3"/>
    </vehicle>
    <vehicle id="veh67" type="passenger" depart="557.32" departLane="best">
        <route edges="96136748#0 96136748#1 96136747#0 96136747#1 371146256 84657867 314994947#0 314994947#1 142517770 27729257#0 27729257#1 314789430 84657872#0 84657872#1 4693898#0 4693898#1 4693898#2 4693898#3 142517768#0 -142517768#0 -4693898#3 -4693898#2 -4693898#1 -4693898#0 -84657872#1"/>
    </vehicle>
    <vehicle id="veh68" type="passenger" depart="565.63" departLane="best">
        <route edges="130784151#0 130784151#1 130764246#0 130764246#1 314789428#0 314789428#1 137275200#0 137275200#1 4652507#0 4652507#1 4652507#2 4652507#3 450074243 90697744 265499418 314789435#1 4877725 314789433#4 66227388#0 66227388#1 27557419#0 27557419#1 27557419#2"/>
    </vehicle>
    <vehicle id="veh72" type="passenger" depart="598.91" departLane="best">
        <route edges="4828723#3 84657865 98428996#0 98428996#1 98428996#2 -371146256 371146256 84657867 314994947#0 314994947#1 138347498 314789433#0 314789433#1 314789433#4 66227388#0 66227388#1 4726271#0 4726271#1 138347489#0 138347489#1 138347489#2 138347489#3 138347489#4 138347489#5 138347489#6 138347489#9"/>
    </vehicle>
    <vehicle id="veh73" type="passenger" depart="607.22" departLane="best">
        <route edges="153897364#2 153897364#5 153897364#6 153897364#7 153897364#8 314789414 66227390#0 66227390#2 4726268 450074239 4824557#0 4824557#1 148711386 209114498#0 209114498#1 142517768#0 142517768#1 142517768#3 142517768#4 142517768#6 142517768#7 142517768#8 142517768#10 -142356187#1 -142356187#0 -142356185#1 98638605#2"/>
    </vehicle>
    <vehicle id="veh74" type="passenger" depart="615.54" departLane="best">
        <route edges="138419767#0 -138419767#0 130547039 4756454#0 4756454#1 314789426#1 314789426#2 314789426#3 314789428#0 314789428#1 137275200#0 137275200#1 4652507#0 4652507#1 4652507#2 4652507#3 450074243 90697744 265499418 314789435#1 4877725 314789433#4 66227388#0 66227388#1 4726271#0 4726271#1 138347489#0 138347489#1 138347489#2 138347489#3 138347489#4 138347489#5 138347489#6 4824703#1 4824703#2 4824703#5 4824702#1"/>
    </vehicle>
    <vehicle id="veh75" type="passenger" depart="623.86" departLane="best">
        <route edges="265499406#0 265499406#1 439027698#0 439027698#1 314789427 88111450 130547039 130547038 4756455#4 260923013#0 260923013#1"/>
    </vehicle>
    <vehicle id="veh76" type="passenger" depart="632.18" departLane="best">
        <route edges="84657869#2 314789432 138347505#0 138347505#2 314789437#0 314789437#1 314789437#2 142517770 27729257#0 27729257#1 314789430 84657872#0 84657872#1 4693898#0 4693898#1 4693898#2 4693898#3 142517768#0 142517768#1 142517768#3 142517768#4 142517768#6 142517768#7 142517768#8 142517768#10 -142356187#1 -142356187#0 -142356185#1 98638605#2 98638605#3"/>
    </vehicle>
    <vehicle id="veh78" type="passenger" depart="648.82" departLane="best">
        <route edges="-260923013#1 -260923013#0 4760369#0 4221194#1 4221194#2 4221194#3 4221194#4 4221194#5 209114498#0 209114498#1 -4693898#3 -4693898#2 -4693898#1 -4693898#0 152445636#0 152445636#1 152445636#2 152445636#3 4726265 665610741 209114497 4726269 450074238 4726271#0 4726271#1 43324938#1"/>
    </vehicle>
    <vehicle id="veh79" type="passenger" depart="657.13" departLane="best">
        <route edges="314789426#0 314789426#1 314789426#2 314789426#3 314789428#0 314789428#1 137275200#0 137275200#1 4824557#0 4824557#1 148711386 209114498#0 209114498#1 -4693898#3 -4693898#2 -4693898#1 -4693898#0 -84657872#1 -84657872#0 4828723#0 84657862#0 84657862#1 84657862#2 4828726#2"/>
    </vehicle>
    <vehicle id="veh80" type="passenger" depart="665.45" departLane="best">
        <route edges="-96136748#0 96136748#0 96136748#1 96136747#0 96136747#1 371146256 84657867 314994947#0 314994947#1 142517770 27729257#0 27729257#1 314789430 84657872#0 84657872#1 152445636#0 152445636#1 152445636#2 152445636#3 4726265 665610741 209114497 90697744"/>
    </vehicle>
    <vehicle id="veh81" type="passenger" depart="673.77" departLane="best">
        <route edges="-371146256 371146256 84657867 314994947#0 314994947#1 142517770 27729257#0 27729257#1 314789430 84657872#0 84657872#1 4693898#0 4693898#1 4693898#2 4693898#3 142517768#0 142517768#1 142517768#3 142517768#4 142517768#6 142517768#7 142356191#2 142356191#3 4221194#0 4221194#1 4221194#2 4221194#3 4824568#0 4824568#2 138347514#0 138347514#1"/>
    </vehicle>
    <vehicle id="veh82" type="passenger" depart="682.09" departLane="best">
        <route edges="4218501#0 4218501#1 371146256 84657867 314994947#0 314994947#1 142517770 27729257#0 27729257#1 314789430 84657872#0 84657872#1 4693898#0 4693898#1 4693898#2 4693898#3 142517768#0 142517768#1 142517768#3 142517768#4 142517768#6 142517768#7 142356191#2 142356191#3 4221194#0 4221194#1 4756456"/>
    </vehicle>
    <vehicle id="veh83" type="passenger" depart="690.41" departLane="best">
        <route edges="138347489#1 138347489#2 138347489#3 138347489#4 138347489#5 138347489#6 4824703#1 4824703#2 4824703#5 4824702#1 4824702#2 4824695#1 4824708 96136748#0 96136748#1 96136747#0 96136747#1 371146256 84657867 314994947#0 314994947#1 142517770 27729257#0 27729257#1 314789430 84657872#0 84657872#1 4693898#0 4693898#1 4693898#2 4693898#3 142517768#0 142517768#1 142517768#3 142517768#4 142517768#6 142517768#7 142356191#2 142356191#3 4221194#0 4221194#1 4221194#2 4221194#3 4824568#0 130764244#1"/>
    </vehicle>
    <vehicle id="veh85" type="passenger" depart="707.04" departLane="best">
        <route edges="4218501#0 4218501#1 371146256 84657867 314994947#0 314994947#1 142517770 27729257#0 27729257#1 314789430 84657872#0 84657872#1 4693898#0 4693898#1 4693898#2 4693898#3 142517768#0 142517768#1 142517768#3 142517768#4 142517768#6 142517768#7 142356191#2 142356191#3 4221194#0 4221194#1 4221194#2 4221194#3 4824568#0 130784151#1 130764246#0 130764246#1 314789428#0 314789428#1 137275200#0 137275200#1 4652507#0 4652507#1"/>
    </vehicle>
    <vehicle id="veh88" type="passenger" depart="732.00" departLane="best">
        <route edges="138347489#2 138347489#3 138347489#4 138347489#5 138347489#6 4824703#1 4824703#2 4824703#5 4824702#1 4824702#2 132964155#0 132964155#1 314789433#4 66227388#0 66227388#1 27557419#0 27557419#1 27557419#2 27557419#3 90697745 335993897 265499402#0 265499402#1 265499402#2 265499402#3 265499402#4 265499402#5 439027697 259409010#0 259409010#1"/>
    </vehicle>
    <vehicle id="veh91" type="passenger" depart="756.95" departLane="best">
        <route edges="138419767#0 -138419767#0 130547039 4756454#0 4756454#1 314789426#1 314789426#2 314789426#3 314789428#0 314789428#1 137275200#0 137275200#1 4652507#0 4652507#1 4652507#2 4652507#3 450074243 90697744 265499418 314789435#1 314789436#0 314789436#1 84657866#0 84657866#1 84657866#2"/>
    </vehicle>
    <vehicle id="veh92" type="passenger" depart="765.27" departLane="best">
        <route edges="4824712 627278687 149540118 627278688 -4824707 4824708 96136748#0 96136748#1 96136747#0 96136747#1 371146256 84657867 314994947#0 314994947#1 142517770 27729257#0 27729257#1 314789430 84657872#0 84657872#1 4693898#0 4693898#1 4693898#2 4693898#3 142517768#0 142517768#1 142517768#3 142517768#4 142517768#6 4760369#3 4760369#4"/>
    </vehicle>
    <vehicle id="veh93" type="passenger" depart="773.59" departLane="best">
        <route edges="4221194#4 4221194#5 209114498#0 209114498#1 142517768#0 142517768#1 142517768#3 142517768#4 142517768#6 142517768#7 142517768#8 142517768#10 -142356187#1 -142356187#0 -142356185#1 98638605#2"/>
    </vehicle>
    <vehicle id="veh94" type="passenger" depart="781.91" departLane="best">
        <route edges="450074243 90697744 265499418 314789435#1 84657864#0 84657864#1 84657864#2 314789430 84657872#0 84657872#1 4693898#0 4693898#1 4693898#2 4693898#3 142517768#0 142517768#1 142517768#3 142517768#4 142517768#6 142517768#7 142356191#2 142356191#3 142356191#4 149357425#0 149357439 -142519288#1 -142519288#0 -138419767#1 -138419767#0"/>
    </vehicle>
    <vehicle id="veh95" type="passenger" depart="790.22" departLane="best">
        <route edges="-4824704#4 -4824704#3 4824698#0 4824698#1 4824698#2 4824708 96136748#0 96136748#1 96136747#0 96136747#1 371146256 84657867 314994947#0 314994947#1 142517770 27729257#0 27729257#1 314789430 84657872#0 84657872#1 4693898#0 4693898#1 4693898#2 4693898#3 142517768#0 142517768#1 142517768#3 142517768#4 142517768#6 142517768#7 142356191#2 142356191#3 142356191#4 149357425#0 149357439 -142519288#1 -142519288#0 -138419767#1 -138419767#0 130547039"/>
    </vehicle>
    <vehicle id="veh96" type="passenger" depart="798.54" departLane="best">
        <route edges="-4824572 4824573#0 4824573#1 4824573#2 4824573#3 153897364#2 153897364#5 153897364#6 153897364#7 153897364#8 314789414 66227390#0 66227390#2 209114515#0 209114515#1 209114515#2 209114515#3 439942510 265499418 314789435#1 314789436#0 314789436#1 84657866#0 84657866#1 84657866#2 84657865 98428996#0 98428996#1 98428996#2 -371146256 142517769#0 142517769#1 142517769#2 371146247 371146249"/>
    </vehicle>
    <vehicle id="veh97" type="passenger" depart="806.86" departLane="best">