<?xml version="1.0" encoding="UTF-8"?>
<!-- generated on 2020-07-14 20:17:48.272383 by $Id$ via randomTrips.py
  options: 
-->
<routes xmlns:xsi="http://www.w3.org/2001/XMLSchema-instance" xsi:noNamespaceSchemaLocation="http://sumo.dlr.de/xsd/routes_file.xsd">
    <vType id="bicycle" speedFactor="normc(1.00,0.10,0.20,2.00)" vClass="bicycle">
    </vType>
    <trip id="bike0" depart="0.00" departLane="best" from="4221194#0" to="-140772396#6" type="bicycle"/>
    <trip id="bike2" depart="29.06" departLane="best" from="4756456" to="4652507#2" type="bicycle"/>
    <trip id="bike3" depart="43.59" departLane="best" from="59851743#0" to="-4824695#1" type="bicycle"/>
    <trip id="bike4" depart="58.12" departLane="best" from="152445636#1" to="-140772396#8" type="bicycle"/>
    <trip id="bike5" depart="72.65" departLane="best" from="137275200#0" to="265499402#3" type="bicycle"/>
    <trip id="bike6" depart="87.18" departLane="best" from="-140772396#9" to="138347505#0" type="bicycle"/>
    <trip id="bike8" depart="116.23" departLane="best" from="137275200#1" to="37035107#0" type="bicycle"/>
    <trip id="bike9" depart="130.76" departLane="best" from="4824703#5" to="-138419767#0" type="bicycle"/>
    <trip id="bike10" depart="145.29" departLane="best" from="4824703#1" to="4726265" type="bicycle"/>
    <trip id="bike11" depart="159.82" departLane="best" from="140772448#3" to="130764246#0" type="bicycle"/>
    <trip id="bike12" depart="174.35" departLane="best" from="84657869#0" to="142517768#8" type="bicycle"/>
    <trip id="bike13" depart="188.88" departLane="best" from="-4218501#0" to="-4824702#2" type="bicycle"/>
    <trip id="bike14" depart="203.41" departLane="best" from="4828723#3" to="37307581#1" type="bicycle"/>
    <trip id="bike15" depart="217.94" departLane="best" from="4824703#2" to="4760369#1" type="bicycle"/>
    <trip id="bike16" depart="232.47" departLane="best" from="265499406#1" to="90697744" type="bicycle"/>
    <trip id="bike20" depart="290.59" departLane="best" from="4693898#0" to="-142517768#5" type="bicycle"/>
    <trip id="bike21" depart="305.12" departLane="best" from="138347489#2" to="140772448#2" type="bicycle"/>
    <trip id="bike23" depart="334.17" departLane="best" from="-4693898#2" to="140772396#7" type="bicycle"/>
    <trip id="bike25" depart="363.23" departLane="best" from="142517768#0" to="138347529#1" type="bicycle"/>
    <trip id="bike27" depart="392.29" departLane="best" from="4221194#4" to="395869969" type="bicycle"/>
    <trip id="bike28" depart="406.82" departLane="best" from="-96136747#1" to="4760369#1" type="bicycle"/>
    <trip id="bike30" depart="435.88" departLane="best" from="98428996#0" to="438648464" type="bicycle"/>
    <trip id="bike32" depart="464.94" departLane="best" from="4828723#1" to="4824697#0" type="bicycle"/>
    <trip id="bike33" depart="479.47" departLane="best" from="138347489#3" to="-140772396#9" type="bicycle"/>
    <trip id="bike34" depart="494.00" departLane="best" from="140772396#10" to="140772396#3" type="bicycle"/>
    <trip id="bike36" depart="523.06" departLane="best" from="4836593" to="142517766#0" type="bicycle"/>
    <trip id="bike37" depart="537.59" departLane="best" from="43324938#2" to="152445636#0" type="bicycle"/>
    <trip id="bike38" depart="552.12" departLane="best" from="671832297#0" to="209114520#12" type="bicycle"/>
    <trip id="bike40" depart="581.17" departLane="best" from="314789414" to="138478958#4" type="bicycle"/>
    <trip id="bike41" depart="595.70" departLane="best" from="314789432" to="665610741" type="bicycle"/>
    <trip id="bike42" depart="610.23" departLane="best" from="148711386" to="138419764" type="bicycle"/>
    <trip id="bike44" depart="639.29" departLane="best" from="-395869969" to="-142517768#6" type="bicycle"/>
    <trip id="bike45" depart="653.82" departLane="best" from="-4824695#1" to="4221194#4" type="bicycle"/>
    <trip id="bike46" depart="668.35" departLane="best" from="4824697#3" to="209114497" type="bicycle"/>
    <trip id="bike47" depart="682.88" departLane="best" from="-149540140#3" to="149540140#1" type="bicycle"/>
    <trip id="bike49" depart="711.94" departLane="best" from="84657872#0" to="4828841#1" type="bicycle"/>
    <trip id="bike52" depart="755.53" departLane="best" from="138419770" to="439027697" type="bicycle"/>
    <trip id="bike53" depart="770.06" departLane="best" from="-4824698#0" to="209114514#3" type="bicycle"/>
    <trip id="bike54" depart="784.58" departLane="best" from="209114498#0" to="84657869#1" type="bicycle"/>
    <trip id="bike55" depart="799.11" departLane="best" from="4834297" to="138478958#5" type="bicycle"/>
    <trip id="bike58" depart="842.70" departLane="best" from="138478958#0" to="438648464" type="bicycle"/>
    <trip id="bike60" depart="871.76" departLane="best" from="4824568#0" to="314789426#1" type="bicycle"/>
    <trip id="bike62" depart="900.82" departLane="best" from="-130547038" to="142517768#1" type="bicycle"/>
    <trip id="bike63" depart="915.35" departLane="best" from="-140772396#6" to="84657862#0" type="bicycle"/>
    <trip id="bike64" depart="929.88" departLane="best" from="4877725" to="4828723#1" type="bicycle"/>
    <trip id="bike65" depart="944.41" departLane="best" from="138478958#4" to="-149540140#0" type="bicycle"/>
    <trip id="bike66" depart="958.94" departLane="best" from="4836593" to="84657866#2" type="bicycle"/>
    <trip id="bike67" depart="973.47" departLane="best" from="-37035107#1" to="259409010#0" type="bicycle"/>
    <trip id="bike72" depart="1046.11" departLane="best" from="152445636#1" to="138347529#2" type="bicycle"/>
    <trip id="bike73" depart="1060.64" departLane="best" from="27557419#0" to="4760369#1" type="bicycle"/>
    <trip id="bike74" depart="1075.17" departLane="best" from="130784151#1" to="142356191#4" type="bicycle"/>
    <trip id="bike75" depart="1089.70" departLane="best" from="98428996#2" to="439942512" type="bicycle"/>
    <trip id="bike76" depart="1104.23" departLane="best" from="153897364#6" to="27557419#0" type="bicycle"/>
    <trip id="bike77" depart="1118.76" departLane="best" from="-4824702#2" to="138419767#1" type="bicycle"/>
    <trip id="bike78" depart="1133.29" departLane="best" from="140772448#2" to="335993897" type="bicycle"/>
    <trip id="bike79" depart="1147.82" departLane="best" from="138347489#3" to="138419764" type="bicycle"/>
    <trip id="bike80" depart="1162.35" departLane="best" from="-153897385" to="4221194#5" type="bicycle"/>
    <trip id="bike81" depart="1176.88" departLane="best" from="138347489#3" to="671832297#1" type="bicycle"/>
    <trip id="bike82" depart="1191.41" departLane="best" from="4828726#1" to="-371146256" type="bicycle"/>
    <trip id="bike83" depart="1205.94" departLane="best" from="138347498" to="454115422#4" type="bicycle"/>
    <trip id="bike84" depart="1220.46" departLane="best" from="132964155#0" to="-84657872#1" type="bicycle"/>
    <trip id="bike85" depart="1234.99" departLane="best" from="84657862#1" to="314789436#1" type="bicycle"/>
    <trip id="bike86" depart="1249.52" departLane="best" from="209114515#3" to="4824698#0" type="bicycle"/>
    <trip id="bike87" depart="1264.05" departLane="best" from="4824703#2" to="138347489#6" type="bicycle"/>
    <trip id="bike88" depart="1278.58" departLane="best" from="-4693898#0" to="209114514#1" type="bicycle"/>
    <trip id="bike89" depart="1293.11" departLane="best" from="152445636#2" to="209114520#4" type="bicycle"/>
    <trip id="bike90" depart="1307.64" departLane="best" from="4756454#0" to="4652507#0" type="bicycle"/>
    <trip id="bike91" depart="1322.17" departLane="best" from="96136747#1" to="-4824702#2" type="bicycle"/>
    <trip id="bike92" depart="1336.70" departLane="best" from="149357439" to="142517769#0" type="bicycle"/>
    <trip id="bike94" depart="1365.76" departLane="best" from="130764244#0" to="209114517" type="bicycle"/>
    <trip id="bike95" depart="1380.29" departLane="best" from="152445636#1" to="140772396#8" type="bicycle"/>
    <trip id="bike97" depart="1409.35" departLane="best" from="171934808#0" to="4828841#1" type="bicycle"/>
    <trip id="bike98" depart="1423.88" departLane="best" from="27729257#1" to="-142517768#7" type="bicycle"/>
    <trip id="bike103" depart="1496.52" departLane="best" from="149357425#0" to="-149540140#0" type="bicycle"/>
    <trip id="bike104" depart="1511.05" departLane="best" from="142517768#4" to="98428996#0" type="bicycle"/>
    <trip id="bike106" depart="1540.11" departLane="best" from="209114498#1" to="209114497" type="bicycle"/>
    <trip id="bike107" depart="1554.64" departLane="best" from="84657869#0" to="98638605#2" type="bicycle"/>
    <trip id="bike109" depart="1583.70" departLane="best" from="-682283993#4" to="140772448#5" type="bicycle"/>
    <trip id="bike110" depart="1598.23" departLane="best" from="84657870#2" to="314789438#0" type="bicycle"/>
    <trip id="bike111" depart="1612.76" departLane="best" from="27557419#1" to="4824567#1" type="bicycle"/>
    <trip id="bike112" depart="1627.29" departLane="best" from="-149540140#0" to="314994947#0" type="bicycle"/>
    <trip id="bike114" depart="1656.35" departLane="best" from="-682284020" to="84657870#0" type="bicycle"/>
    <trip id="bike115" depart="1670.87" departLane="best" from="-37035107#0" to="138347489#4" type="bicycle"/>
    <trip id="bike116" depart="1685.40" departLane="best" from="314789436#0" to="4652507#1" type="bicycle"/>
    <trip id="bike117" depart="1699.93" departLane="best" from="138347489#6" to="-682283993#2" type="bicycle"/>
    <trip id="bike119" depart="1728.99" departLane="best" from="314789436#0" to="4221194#0" type="bicycle"/>
    <trip id="bike120" depart="1743.52" departLane="best" from="149540140#2" to="314994947#0" type="bicycle"/>
    <trip id="bike123" depart="1787.11" departLane="best" from="138347498" to="152445636#0" type="bicycle"/>
    <trip id="bike124" depart="1801.64" departLane="best" from="439942510" to="142356187#0" type="bicycle"/>
    <trip id="bike125" depart="1816.17" departLane="best" from="140772396#10" to="4824567#3" type="bicycle"/>
    <trip id="bike126" depart="1830.70" departLane="best" from="-25885524" to="209114520#12" type="bicycle"/>
    <trip id="bike127" depart="1845.23" departLane="best" from="98638605#2" to="98638605#3" type="bicycle"/>
    <trip id="bike128" depart="1859.76" departLane="best" from="-25885524" to="138347533#0" type="bicycle"/>
    <trip id="bike131" depart="1903.34" departLane="best" from="142517768#0" to="130764246#1" type="bicycle"/>
    <trip id="bike132" depart="1917.87" departLane="best" from="4824710" to="4726269" type="bicycle"/>
    <trip id="bike133" depart="1932.40" departLane="best" from="37035107#0" to="98428996#1" type="bicycle"/>
    <trip id="bike134" depart="1946.93" departLane="best" from="43324938#1" to="-138419767#0" type="bicycle"/>
    <trip id="bike135" depart="1961.46" departLane="best" from="4824703#8" to="142356185#0" type="bicycle"/>
    <trip id="bike136" depart="1975.99" departLane="best" from="438898636" to="84657864#2" type="bicycle"/>
    <trip id="bike137" depart="1990.52" departLane="best" from="-4824707" to="-682283993#0" type="bicycle"/>
    <trip id="bike140" depart="2034.11" departLane="best" from="4726265" to="138347514#1" type="bicycle"/>
    <trip id="bike141" depart="2048.64" departLane="best" from="4218501#0" to="138478958#5" type="bicycle"/>
    <trip id="bike143" depart="2077.70" departLane="best" from="4828723#2" to="-4824702#0" type="bicycle"/>
    <trip id="bike144" depart="2092.23" departLane="best" from="152445636#2" to="140772396#7" type="bicycle"/>
    <trip id="bike145" depart="2106.75" departLane="best" from="-130764246#0" to="4824695#1" type="bicycle"/>
    <trip id="bike146" depart="2121.28" departLane="best" from="4218501#0" to="138478958#4" type="bicycle"/>
    <trip id="bike148" depart="2150.34" departLane="best" from="153897364#0" to="-138419767#1" type="bicycle"/>
    <trip id="bike149" depart="2164.87" departLane="best" from="-260923013#0" to="59851743#3" type="bicycle"/>
    <trip id="bike151" depart="2193.93" departLane="best" from="4824711" to="314994947#0" type="bicycle"/>
    <trip id="bike152" depart="2208.46" departLane="best" from="-682283993#1" to="-773759798" type="bicycle"/>
    <trip id="bike153" depart="2222.99" departLane="best" from="138478958#5" to="665610741" type="bicycle"/>
    <trip id="bike154" depart="2237.52" departLane="best" from="4824698#1" to="4828841#1" type="bicycle"/>
    <trip id="bike155" depart="2252.05" departLane="best" from="59851743#3" to="138347529#2" type="bicycle"/>
    <trip id="bike156" depart="2266.58" departLane="best" from="138347529#1" to="-4824704#2" type="bicycle"/>
    <trip id="bike157" depart="2281.11" departLane="best" from="4824695#1" to="59851743#3" type="bicycle"/>
    <trip id="bike158" depart="2295.64" departLane="best" from="149539965#0" to="4221194#0" type="bicycle"/>
    <trip id="bike159" depart="2310.17" departLane="best" from="-682283993#4" to="84657862#1" type="bicycle"/>
    <trip id="bike160" depart="2324.69" departLane="best" from="4828840#0" to="90697745" type="bicycle"/>
    <trip id="bike161" depart="2339.22" departLane="best" from="4824703#5" to="59851743#2" type="bicycle"/>
    <trip id="bike162" depart="2353.75" departLane="best" from="-140772396#8" to="4760369#4" type="bicycle"/>
    <trip id="bike163" depart="2368.28" departLane="best" from="140772410" to="84657862#1" type="bicycle"/>
    <trip id="bike164" depart="2382.81" departLane="best" from="4824702#1" to="4834297" type="bicycle"/>
    <trip id="bike165" depart="2397.34" departLane="best" from="4824703#5" to="140772396#10" type="bicycle"/>
    <trip id="bike166" depart="2411.87" departLane="best" from="4824697#1" to="-4824707" type="bicycle"/>
    <trip id="bike167" depart="2426.40" departLane="best" from="4828841#0" to="4828841#0" type="bicycle"/>
    <trip id="bike168" depart="2440.93" departLane="best" from="138347489#0" to="4824704#3" type="bicycle"/>
    <trip id="bike170" depart="2469.99" departLane="best" from="4824698#1" to="138419768#1" type="bicycle"/>
    <trip id="bike171" depart="2484.52" departLane="best" from="-140772396#8" to="138347489#9" type="bicycle"/>
    <trip id="bike172" depart="2499.05" departLane="best" from="140772396#8" to="4834297" type="bicycle"/>
    <trip id="bike173" depart="2513.58" departLane="best" from="84657870#1" to="140772396#8" type="bicycle"/>
    <trip id="bike174" depart="2528.11" departLane="best" from="4221194#0" to="152445636#2" type="bicycle"/>
    <trip id="bike176" depart="2557.16" departLane="best" from="84657864#0" to="-682283993#0" type="bicycle"/>
    <trip id="bike177" depart="2571.69" departLane="best" from="84657870#2" to="138347489#1" type="bicycle"/>
    <trip id="bike179" depart="2600.75" departLane="best" from="-4824572" to="209114514#2" type="bicycle"/>
    <trip id="bike180" depart="2615.28" departLane="best" from="4756454#0" to="142517766#0" type="bicycle"/>
    <trip id="bike181" depart="2629.81" departLane="best" from="314994947#1" to="265499402#5" type="bicycle"/>
    <trip id="bike182" depart="2644.34" departLane="best" from="142517768#8" to="314789437#2" type="bicycle"/>
    <trip id="bike183" depart="2658.87" departLane="best" from="138347533#0" to="4756454#0" type="bicycle"/>
    <trip id="bike185" depart="2687.93" departLane="best" from="265499418" to="4756456" type="bicycle"/>
    <trip id="bike186" depart="2702.46" departLane="best" from="4760369#0" to="454115422#5" type="bicycle"/>
    <trip id="bike187" depart="2716.99" departLane="best" from="142356191#4" to="-37035107#0" type="bicycle"/>
    <trip id="bike188" depart="2731.52" departLane="best" from="438898636" to="142517768#4" type="bicycle"/>
    <trip id="bike189" depart="2746.05" departLane="best" from="140772396#0" to="4828840#0" type="bicycle"/>
    <trip id="bike190" depart="2760.58" departLane="best" from="4726268" to="142356187#0" type="bicycle"/>
    <trip id="bike191" depart="2775.10" departLane="best" from="138478958#5" to="153897364#6" type="bicycle"/>
    <trip id="bike192" depart="2789.63" departLane="best" from="149357425#0" to="140772448#5" type="bicycle"/>
    <trip id="bike194" depart="2818.69" departLane="best" from="84657864#0" to="4652507#2" type="bicycle"/>
    <trip id="bike195" depart="2833.22" departLane="best" from="627278688" to="4218426#4" type="bicycle"/>
    <trip id="bike196" depart="2847.75" departLane="best" from="138478958#1" to="314789428#0" type="bicycle"/>
    <trip id="bike197" depart="2862.28" departLane="best" from="-130547038" to="140772448#0" type="bicycle"/>
    <trip id="bike198" depart="2876.81" departLane="best" from="153897364#0" to="314789438#0" type="bicycle"/>
    <trip id="bike199" depart="2891.34" departLane="best" from="43324938#2" to="209114520#3" type="bicycle"/>
    <trip id="bike200" depart="2905.87" departLane="best" from="153897364#8" to="138347533#0" type="bicycle"/>
    <trip id="bike201" depart="2920.40" departLane="best" from="209114515#3" to="671832297#0" type="bicycle"/>
    <trip id="bike202" depart="2934.93" departLane="best" from="4824698#1" to="132964155#1" type="bicycle"/>
    <trip id="bike203" depart="2949.46" departLane="best" from="-37035107#1" to="265499418" type="bicycle"/>
    <trip id="bike204" depart="2963.99" departLane="best" from="4218426#4" to="142517768#7" type="bicycle"/>
    <trip id="bike205" depart="2978.52" departLane="best" from="4824704#0" to="4824567#2" type="bicycle"/>
    <trip id="bike206" depart="2993.04" departLane="best" from="439942510" to="138419767#1" type="bicycle"/>
    <trip id="bike207" depart="3007.57" departLane="best" from="130784151#0" to="-140772396#6" type="bicycle"/>
    <trip id="bike208" depart="3022.10" departLane="best" from="138347514#0" to="209114520#7" type="bicycle"/>
    <trip id="bike209" depart="3036.63" departLane="best" from="4828724#0" to="-4218501#0" type="bicycle"/>
    <trip id="bike210" depart="3051.16" departLane="best" from="149540140#0" to="4221194#5" type="bicycle"/>
    <trip id="bike211" depart="3065.69" departLane="best" from="130764246#0" to="4724425" type="bicycle"/>
    <trip id="bike213" depart="3094.75" departLane="best" from="43324938#2" to="-130764246#1" type="bicycle"/>
    <trip id="bike215" depart="3123.81" departLane="best" from="-4824572" to="209114498#0" type="bicycle"/>
    <trip id="bike216" depart="3138.34" departLane="best" from="-96136748#1" to="84657869#3" type="bicycle"/>
    <trip id="bike218" depart="3167.40" departLane="best" from="138347529#0" to="4828840#0" type="bicycle"/>
    <trip id="bike219" depart="3181.93" departLane="best" from="209114498#1" to="4824703#5" type="bicycle"/>
    <trip id="bike220" depart="3196.46" departLane="best" from="439027698#0" to="98428996#1" type="bicycle"/>
    <trip id="bike221" depart="3210.98" departLane="best" from="314789436#1" to="84657867" type="bicycle"/>
    <trip id="bike223" depart="3240.04" departLane="best" from="4726268" to="265499402#2" type="bicycle"/>
    <trip id="bike224" depart="3254.57" departLane="best" from="4824710" to="314789428#0" type="bicycle"/>
    <trip id="bike225" depart="3269.10" departLane="best" from="59851743#2" to="4824557#1" type="bicycle"/>
    <trip id="bike227" depart="3298.16" departLane="best" from="138347514#1" to="43324938#3" type="bicycle"/>
    <trip id="bike229" depart="3327.22" departLane="best" from="4218426#0" to="140772396#6" type="bicycle"/>
    <trip id="bike230" depart="3341.75" departLane="best" from="-260923013#1" to="140772448#0" type="bicycle"/>
    <trip id="bike232" depart="3370.81" departLane="best" from="27557419#0" to="-96136748#0" type="bicycle"/>
    <trip id="bike233" depart="3385.34" departLane="best" from="138347489#4" to="4723926" type="bicycle"/>
    <trip id="bike234" depart="3399.87" departLane="best" from="4693898#0" to="-149540140#2" type="bicycle"/>
    <trip id="bike235" depart="3414.40" departLane="best" from="149539965#1" to="314789426#3" type="bicycle"/>
    <trip id="bike236" depart="3428.93" departLane="best" from="149540140#1" to="138347529#0" type="bicycle"/>
    <trip id="bike237" depart="3443.45" departLane="best" from="152445636#0" to="671832297#1" type="bicycle"/>
    <trip id="bike238" depart="3457.98" departLane="best" from="314789432" to="4723926" type="bicycle"/>
    <trip id="bike240" depart="3487.04" departLane="best" from="142517768#6" to="-130764246#1" type="bicycle"/>
    <trip id="bike242" depart="3516.10" departLane="best" from="4828724#2" to="84657869#1" type="bicycle"/>
    <trip id="bike243" depart="3530.63" departLane="best" from="149540140#2" to="4824567#1" type="bicycle"/>
    <trip id="bike245" depart="3559.69" departLane="best" from="137275200#1" to="138419764" type="bicycle"/>
    <trip id="bike246" depart="3574.22" departLane="best" from="153897364#5" to="-140772396#8" type="bicycle"/>
    <trip id="bike247" depart="3588.75" departLane="best" from="140772448#1" to="4652507#3" type="bicycle"/>
</routes>
