<?xml version="1.0" encoding="UTF-8"?>

<!-- generated on 07/14/20 20:17:45 by SUMO netconvert Version 0.32.0
<?xml version="1.0" encoding="UTF-8"?>

<configuration xmlns:xsi="http://www.w3.org/2001/XMLSchema-instance" xsi:noNamespaceSchemaLocation="http://sumo.dlr.de/xsd/netconvertConfiguration.xsd">

    <input>
        <type-files value="C:\Program%20Files%20(x86)\DLR\Sumo\data\typemap\osmNetconvert.typ.xml,C:\Program%20Files%20(x86)\DLR\Sumo\data\typemap\osmNetconvertUrbanDe.typ.xml,C:\Program%20Files%20(x86)\DLR\Sumo\data\typemap\osmNetconvertPedestrians.typ.xml,C:\Program%20Files%20(x86)\DLR\Sumo\data\typemap\osmNetconvertBicycle.typ.xml"/>
        <osm-files value="osm_bbox.osm.xml"/>
    </input>

    <output>
        <output-file value="C:\Users\JTech%20Global\Sumo\2020-07-14-20-17-39\osm.net.xml"/>
        <output.street-names value="true"/>
        <output.original-names value="true"/>
    </output>

    <projection>
        <proj.utm value="true"/>
    </projection>

    <tls_building>
        <tls.discard-simple value="true"/>
        <tls.join value="true"/>
        <tls.guess-signals value="true"/>
        <tls.default-type value="actuated"/>
    </tls_building>

    <ramp_guessing>
        <ramps.guess value="true"/>
    </ramp_guessing>

    <processing>
        <geometry.remove value="true"/>
        <roundabouts.guess value="true"/>
        <junctions.join value="true"/>
        <junctions.corner-detail value="5"/>
        <crossings.guess value="true"/>
    </processing>

    <report>
        <verbose value="true"/>
    </report>

</configuration>
-->

<net version="0.27" junctionCornerDetail="5" walkingareas="true" xmlns:xsi="http://www.w3.org/2001/XMLSchema-instance" xsi:noNamespaceSchemaLocation="http://sumo.dlr.de/xsd/net_file.xsd">

    <location netOffset="-477319.10,-5551701.19" convBoundary="0.00,0.00,1722.80,2857.74" origBoundary="8.682686,50.117135,8.706789,50.142877" projParameter="+proj=utm +zone=32 +ellps=WGS84 +datum=WGS84 +units=m +no_defs"/>

    <type id="cycleway.lane" allow="bicycle" bikeLaneWidth="1.00"/>
    <type id="cycleway.lane|highway.primary" priority="9" numLanes="2" speed="13.90" disallow="tram rail_urban rail rail_electric pedestrian ship" oneway="0" sidewalkWidth="3.00" bikeLaneWidth="1.00"/>
    <type id="cycleway.lane|highway.tertiary" priority="6" numLanes="1" speed="13.90" disallow="tram rail_urban rail rail_electric pedestrian ship" oneway="0" sidewalkWidth="3.00" bikeLaneWidth="1.00"/>
    <type id="cycleway.opposite_lane" allow="bicycle" bikeLaneWidth="1.00"/>
    <type id="cycleway.opposite_track" allow="bicycle" bikeLaneWidth="1.50"/>
    <type id="cycleway.track" allow="bicycle" bikeLaneWidth="1.50"/>
    <type id="cycleway.track|highway.primary" priority="9" numLanes="2" speed="13.90" disallow="tram rail_urban rail rail_electric pedestrian ship" oneway="0" sidewalkWidth="3.00" bikeLaneWidth="1.50"/>
    <type id="cycleway.track|highway.secondary" priority="7" numLanes="2" speed="13.90" disallow="tram rail_urban rail rail_electric pedestrian ship" oneway="0" sidewalkWidth="3.00" bikeLaneWidth="1.50"/>
    <type id="highway.bridleway" priority="1" numLanes="1" speed="2.78" allow="pedestrian" oneway="1" width="2.00"/>
    <type id="highway.bus_guideway" priority="1" numLanes="1" speed="8.33" allow="bus" oneway="1"/>
    <type id="highway.cycleway" priority="1" numLanes="1" speed="5.56" allow="bicycle" oneway="0" width="1.00"/>
    <type id="highway.footway" priority="1" numLanes="1" speed="2.78" allow="pedestrian" oneway="1" width="2.00"/>
    <type id="highway.ford" priority="1" numLanes="1" speed="2.78" allow="army" oneway="0"/>
    <type id="highway.living_street" priority="3" numLanes="1" speed="2.78" disallow="tram rail_urban rail rail_electric ship" oneway="0"/>
    <type id="highway.motorway" priority="13" numLanes="2" speed="27.78" allow="private emergency authority army vip passenger hov taxi bus coach delivery truck trailer motorcycle evehicle custom1 custom2" oneway="1"/>
    <type id="highway.motorway_link" priority="12" numLanes="1" speed="16.67" allow="private emergency authority army vip passenger hov taxi bus coach delivery truck trailer motorcycle evehicle custom1 custom2" oneway="1"/>
    <type id="highway.path" priority="1" numLanes="1" speed="2.78" allow="bicycle pedestrian" oneway="1" width="2.00"/>
    <type id="highway.pedestrian" priority="1" numLanes="1" speed="2.78" allow="pedestrian" oneway="1" width="2.00"/>
    <type id="highway.primary" priority="9" numLanes="2" speed="13.89" disallow="tram rail_urban rail rail_electric pedestrian ship" oneway="0" sidewalkWidth="3.00"/>
    <type id="highway.primary_link" priority="8" numLanes="1" speed="13.89" disallow="tram rail_urban rail rail_electric pedestrian ship" oneway="0" sidewalkWidth="3.00"/>
    <type id="highway.raceway" priority="14" numLanes="2" speed="83.33" allow="vip" oneway="0"/>
    <type id="highway.residential" priority="4" numLanes="1" speed="13.89" disallow="tram rail_urban rail rail_electric pedestrian ship" oneway="0" sidewalkWidth="2.00"/>
    <type id="highway.secondary" priority="7" numLanes="2" speed="13.89" disallow="tram rail_urban rail rail_electric pedestrian ship" oneway="0" sidewalkWidth="3.00"/>
    <type id="highway.secondary_link" priority="6" numLanes="1" speed="13.89" disallow="tram rail_urban rail rail_electric pedestrian ship" oneway="0" sidewalkWidth="3.00"/>
    <type id="highway.service" priority="2" numLanes="1" speed="5.56" allow="delivery bicycle pedestrian" oneway="0"/>
    <type id="highway.services" priority="1" numLanes="1" speed="8.33" disallow="tram rail_urban rail rail_electric ship" oneway="0"/>
    <type id="highway.stairs" priority="1" numLanes="1" speed="1.39" allow="pedestrian" oneway="1" width="2.00"/>
    <type id="highway.step" priority="1" numLanes="1" speed="1.39" allow="pedestrian" oneway="1" width="2.00"/>
    <type id="highway.steps" priority="1" numLanes="1" speed="1.39" allow="pedestrian" oneway="1" width="2.00"/>
    <type id="highway.tertiary" priority="6" numLanes="1" speed="13.89" disallow="tram rail_urban rail rail_electric pedestrian ship" oneway="0" sidewalkWidth="3.00"/>
    <type id="highway.tertiary_link" priority="5" numLanes="1" speed="13.89" disallow="tram rail_urban rail rail_electric pedestrian ship" oneway="0" sidewalkWidth="2.00"/>
    <type id="highway.track" priority="1" numLanes="1" speed="5.56" disallow="tram rail_urban rail rail_electric ship" oneway="0"/>
    <type id="highway.trunk" priority="11" numLanes="2" speed="13.89" disallow="tram rail_urban rail rail_electric bicycle pedestrian ship" oneway="0"/>
    <type id="highway.trunk_link" priority="10" numLanes="1" speed="13.89" disallow="tram rail_urban rail rail_electric bicycle pedestrian ship" oneway="0"/>
    <type id="highway.unclassified" priority="5" numLanes="1" speed="13.89" disallow="tram rail_urban rail rail_electric pedestrian ship" oneway="0" sidewalkWidth="2.00"/>
    <type id="highway.unsurfaced" priority="1" numLanes="1" speed="8.33" disallow="tram rail_urban rail rail_electric ship" oneway="0"/>
    <type id="railway.light_rail" priority="15" numLanes="1" speed="27.78" allow="rail_urban" oneway="1"/>
    <type id="railway.preserved" priority="15" numLanes="1" speed="27.78" allow="rail" oneway="1"/>
    <type id="railway.rail" priority="15" numLanes="1" speed="83.33" allow="rail rail_electric" oneway="1"/>
    <type id="railway.subway" priority="15" numLanes="1" speed="27.78" allow="rail_urban" oneway="1"/>
    <type id="railway.tram" priority="15" numLanes="1" speed="13.89" allow="tram" oneway="1"/>

    <edge id=":1111667440_0" function="internal">
        <lane id=":1111667440_0_0" index="0" disallow="tram rail_urban rail rail_electric pedestrian ship" speed="8.33" length="5.00" shape="893.36,1261.00 894.85,1265.77"/>
    </edge>
    <edge id=":1111667440_c0" function="crossing" crossingEdges="4824697#1">
        <lane id=":1111667440_c0_0" index="0" allow="pedestrian" speed="1.00" length="3.20" width="4.00" shape="892.43,1263.39 895.48,1262.43"/>
    </edge>
    <edge id=":1111667440_w0" function="walkingarea">
        <lane id=":1111667440_w0_0" index="0" allow="pedestrian" speed="1.00" length="3.49" width="4.00" shape="896.47,1265.27 898.38,1264.67 896.89,1259.90 894.98,1260.49 896.08,1264.34"/>
    </edge>
    <edge id=":1111667440_w1" function="walkingarea">
        <lane id=":1111667440_w1_0" index="0" allow="pedestrian" speed="1.00" length="1.58" width="4.00" shape="893.02,1265.30 891.83,1261.48 890.85,1263.36 891.44,1265.27"/>
    </edge>
    <edge id=":1111667444_0" function="internal">
        <lane id=":1111667444_0_0" index="0" disallow="tram rail_urban rail rail_electric pedestrian ship" speed="8.33" length="5.08" shape="872.79,1272.82 870.98,1268.07"/>
    </edge>
    <edge id=":1111667444_c0" function="crossing" crossingEdges="132964155#0">
        <lane id=":1111667444_c0_0" index="0" allow="pedestrian" speed="1.00" length="3.20" width="4.00" shape="873.52,1270.36 870.55,1271.57"/>
    </edge>
    <edge id=":1111667444_w0" function="walkingarea">
        <lane id=":1111667444_w0_0" index="0" allow="pedestrian" speed="1.00" length="3.62" width="4.00" shape="869.38,1268.63 867.49,1269.29 869.37,1274.22 871.22,1273.46 871.31,1273.42 869.80,1269.72"/>
    </edge>
    <edge id=":1111667444_w1" function="walkingarea">
        <lane id=":1111667444_w1_0" index="0" allow="pedestrian" speed="1.00" length="1.62" width="4.00" shape="872.76,1268.51 874.27,1272.21 875.14,1270.37 874.54,1268.47"/>
    </edge>
    <edge id=":119763939_0" function="internal">
        <lane id=":119763939_0_0" index="0" allow="tram" speed="13.89" length="5.80" shape="672.73,1131.91 672.87,1133.63 673.01,1134.80 673.24,1135.96 673.62,1137.63"/>
    </edge>
    <edge id=":119763939_1" function="internal">
        <lane id=":119763939_1_0" index="0" allow="tram" speed="13.89" length="5.79" shape="672.73,1131.91 673.30,1137.67"/>
    </edge>
    <edge id=":119763939_2" function="internal">
        <lane id=":119763939_2_0" index="0" allow="tram" speed="13.89" length="5.86" shape="672.73,1131.91 672.84,1133.65 672.85,1134.84 672.77,1136.03 672.60,1137.76"/>
    </edge>
    <edge id=":119763939_c0" function="crossing" crossingEdges="628383147#0">
        <lane id=":119763939_c0_0" index="0" allow="pedestrian" speed="1.00" length="3.20" width="4.00" shape="671.28,1134.02 674.47,1133.79"/>
    </edge>
    <edge id=":119763939_w0" function="walkingarea">
        <lane id=":119763939_w0_0" index="0" allow="pedestrian" speed="1.00" length="1.16" width="4.00" shape="674.39,1135.92 674.82,1133.97 674.33,1131.80 674.42,1132.98 674.50,1133.85 674.60,1134.56 674.73,1135.27 674.91,1136.13"/>
    </edge>
    <edge id=":119763939_w1" function="walkingarea">
        <lane id=":119763939_w1_0" index="0" allow="pedestrian" speed="1.00" length="0.73" width="4.00" shape="671.13,1132.03 671.82,1133.54 671.76,1135.54 671.13,1136.41 671.21,1135.54 671.25,1134.81 671.25,1134.09 671.21,1133.21"/>
    </edge>
    <edge id=":13796123_0" function="internal">
        <lane id=":13796123_0_0" index="0" disallow="tram rail_urban rail rail_electric pedestrian ship" speed="13.89" length="20.95" shape="747.72,1347.93 745.77,1345.10 744.53,1340.81 744.00,1335.04 744.19,1327.79"/>
    </edge>
    <edge id=":13796123_1" function="internal">
        <lane id=":13796123_1_0" index="0" allow="bicycle" speed="13.89" length="14.81" width="1.00" shape="749.20,1346.30 745.99,1343.19 744.00,1340.87 742.08,1338.48 739.09,1335.15"/>
        <lane id=":13796123_1_1" index="1" disallow="tram rail_urban rail rail_electric bicycle pedestrian ship" speed="13.89" length="14.81" shape="751.41,1343.85 740.68,1333.63"/>
        <lane id=":13796123_1_2" index="2" disallow="tram rail_urban rail rail_electric bicycle pedestrian ship" speed="13.89" length="14.81" shape="753.62,1341.40 743.07,1331.36"/>
    </edge>
    <edge id=":13796123_4" function="internal">
        <lane id=":13796123_4_0" index="0" disallow="tram rail_urban rail rail_electric pedestrian ship" speed="13.89" length="14.06" shape="755.84,1338.96 752.10,1335.36 749.46,1332.33 747.92,1329.86 747.48,1327.96"/>
    </edge>
    <edge id=":13796123_5" function="internal">
        <lane id=":13796123_5_0" index="0" allow="bicycle" speed="13.89" length="13.57" width="1.50" shape="755.09,1333.90 744.25,1342.04"/>
        <lane id=":13796123_5_1" index="1" disallow="tram rail_urban rail rail_electric bicycle pedestrian ship" speed="13.89" length="13.57" shape="753.81,1332.12 742.81,1340.06"/>
        <lane id=":13796123_5_2" index="2" disallow="tram rail_urban rail rail_electric bicycle pedestrian ship" speed="13.89" length="13.57" shape="751.88,1329.44 740.87,1337.39"/>
    </edge>
    <edge id=":13796123_c0" function="crossing" crossingEdges="66227390#2">
        <lane id=":13796123_c0_0" index="0" allow="pedestrian" speed="1.00" length="14.20" width="4.00" shape="755.43,1336.43 745.90,1346.96"/>
    </edge>
    <edge id=":13796123_c1" function="crossing" crossingEdges="4726268">
        <lane id=":13796123_c1_0" index="0" allow="pedestrian" speed="1.00" length="7.60" width="4.00" shape="740.11,1336.95 745.61,1331.70"/>
    </edge>
    <edge id=":13796123_c2" function="crossing" crossingEdges="90697745">
        <lane id=":13796123_c2_0" index="0" allow="pedestrian" speed="1.00" length="8.10" width="4.00" shape="746.31,1341.47 741.54,1334.92"/>
    </edge>
    <edge id=":13796123_w0" function="walkingarea">
        <lane id=":13796123_w0_0" index="0" allow="pedestrian" speed="1.00" length="4.54" width="4.00" shape="747.93,1340.29 744.75,1342.73 746.52,1345.15 745.30,1350.60 747.32,1348.37 747.38,1348.30 744.42,1345.62"/>
    </edge>
    <edge id=":13796123_w1" function="walkingarea">
        <lane id=":13796123_w1_0" index="0" allow="pedestrian" speed="1.00" length="1.21" width="4.00" shape="756.91,1337.77 757.19,1336.83 755.44,1334.39 755.07,1334.66 754.98,1335.10 755.13,1335.64 755.49,1336.26 756.09,1336.97"/>
    </edge>
    <edge id=":13796123_w2" function="walkingarea">
        <lane id=":13796123_w2_0" index="0" allow="pedestrian" speed="1.00" length="6.15" width="4.00" shape="742.49,1327.73 739.50,1327.53 744.23,1330.25 746.99,1333.14"/>
    </edge>
    <edge id=":13796123_w3" function="walkingarea">
        <lane id=":13796123_w3_0" index="0" allow="pedestrian" speed="1.00" length="3.12" width="4.00" shape="741.49,1338.39 738.73,1335.50 738.66,1335.57 736.49,1337.64 739.92,1336.10 743.16,1333.74"/>
    </edge>
    <edge id=":13796140_0" function="internal">
        <lane id=":13796140_0_0" index="0" allow="bicycle" speed="13.89" length="0.30" width="1.00" shape="785.95,1313.89 785.53,1313.89"/>
        <lane id=":13796140_0_1" index="1" disallow="tram rail_urban rail rail_electric bicycle pedestrian ship" speed="13.89" length="0.30" shape="784.47,1311.94 784.23,1312.12"/>
        <lane id=":13796140_0_2" index="2" disallow="tram rail_urban rail rail_electric bicycle pedestrian ship" speed="13.89" length="0.30" shape="782.47,1309.31 782.27,1309.47"/>
        <lane id=":13796140_0_3" index="3" disallow="tram rail_urban rail rail_electric bicycle pedestrian ship" speed="13.89" length="0.30" shape="780.48,1306.69 780.31,1306.81"/>
    </edge>
    <edge id=":13796140_w0" function="walkingarea">
        <lane id=":13796140_w0_0" index="0" allow="pedestrian" speed="1.00" length="0.62" width="3.00" shape="785.89,1314.37 787.67,1316.79 788.29,1316.95 786.47,1314.57"/>
    </edge>
    <edge id=":1437299350_w0" function="walkingarea">
        <lane id=":1437299350_w0_0" index="0" allow="pedestrian" speed="1.00" length="3.90" width="2.00" shape="911.05,1224.25 911.55,1222.31 909.78,1222.16 908.63,1220.52 905.65,1222.24 906.49,1224.05 910.09,1223.97 909.34,1223.73 908.71,1223.58 908.10,1223.55 907.39,1223.69"/>
    </edge>
    <edge id=":1437387998_0" function="internal">
        <lane id=":1437387998_0_0" index="0" disallow="tram rail_urban rail rail_electric pedestrian ship" speed="8.33" length="5.75" shape="865.12,1175.87 865.72,1177.47 866.15,1178.55 866.66,1179.60 867.48,1181.10"/>
    </edge>
    <edge id=":1437387998_c0" function="crossing" crossingEdges="4828724#1">
        <lane id=":1437387998_c0_0" index="0" allow="pedestrian" speed="1.00" length="3.20" width="4.00" shape="864.32,1178.31 867.32,1177.18"/>
    </edge>
    <edge id=":1437387998_w0" function="walkingarea">
        <lane id=":1437387998_w0_0" index="0" allow="pedestrian" speed="1.00" length="4.56" width="4.00" shape="868.96,1180.27 870.71,1179.30 872.80,1180.52 873.00,1178.53 868.58,1174.57 866.71,1175.27 867.03,1176.41 867.33,1177.22 867.61,1177.88 867.91,1178.53 868.31,1179.29"/>
    </edge>
    <edge id=":1437387998_w1" function="walkingarea">
        <lane id=":1437387998_w1_0" index="0" allow="pedestrian" speed="1.00" length="1.77" width="4.00" shape="863.62,1176.43 862.65,1177.82 862.62,1179.82 865.47,1180.76 865.03,1179.93 864.70,1179.22 864.40,1178.51 864.07,1177.63"/>
    </edge>
    <edge id=":1437397186_0" function="internal">
        <lane id=":1437397186_0_0" index="0" allow="bicycle" speed="11.11" length="9.87" width="1.50" shape="1048.83,1086.60 1045.77,1086.27 1043.20,1086.45 1041.12,1087.15 1039.52,1088.38"/>
    </edge>
    <edge id=":1437397186_1" function="internal">
        <lane id=":1437397186_1_0" index="0" disallow="tram rail_urban rail rail_electric bicycle pedestrian ship" speed="11.11" length="11.12" shape="1048.83,1086.60 1037.71,1086.73"/>
    </edge>
    <edge id=":1437397186_2" function="internal">
        <lane id=":1437397186_2_0" index="0" allow="bicycle" speed="13.89" length="9.21" width="1.50" shape="1045.83,1081.76 1039.52,1088.38"/>
        <lane id=":1437397186_2_1" index="1" disallow="tram rail_urban rail rail_electric bicycle pedestrian ship" speed="13.89" length="9.21" shape="1044.06,1080.07 1037.71,1086.73"/>
        <lane id=":1437397186_2_2" index="2" disallow="tram rail_urban rail rail_electric bicycle pedestrian ship" speed="13.89" length="9.21" shape="1041.68,1077.78 1035.27,1084.50"/>
    </edge>
    <edge id=":1437397186_c0" function="crossing" crossingEdges="371146249">
        <lane id=":1437397186_c0_0" index="0" allow="pedestrian" speed="1.00" length="4.06" width="4.00" shape="1050.35,1089.04 1051.12,1085.06"/>
    </edge>
    <edge id=":1437397186_w0" function="walkingarea">
        <lane id=":1437397186_w0_0" index="0" allow="pedestrian" speed="1.00" length="7.72" width="4.00" shape="1040.15,1088.95 1042.36,1090.97 1048.51,1088.27 1048.16,1090.24 1049.15,1084.68 1047.55,1084.90 1046.00,1085.08 1044.49,1085.56 1042.99,1086.36 1041.52,1087.47"/>
    </edge>
    <edge id=":1437397186_w1" function="walkingarea">
        <lane id=":1437397186_w1_0" index="0" allow="pedestrian" speed="1.00" length="6.32" width="4.00" shape="1052.32,1089.42 1048.39,1088.66 1048.60,1084.43 1046.44,1082.35"/>
    </edge>
    <edge id=":1437485369_0" function="internal">
        <lane id=":1437485369_0_0" index="0" disallow="tram rail_urban rail rail_electric pedestrian ship" speed="8.33" length="7.71" shape="366.98,1468.75 366.58,1471.01 366.29,1472.56 366.17,1474.12 366.27,1476.39"/>
    </edge>
    <edge id=":1437485369_1" function="internal">
        <lane id=":1437485369_1_0" index="0" disallow="tram rail_urban rail rail_electric pedestrian ship" speed="8.33" length="4.82" shape="366.98,1468.75 365.98,1469.85 365.10,1470.13 364.35,1469.60 363.72,1468.25"/>
    </edge>
    <edge id=":1437485369_2" function="internal">
        <lane id=":1437485369_2_0" index="0" disallow="tram rail_urban rail rail_electric pedestrian ship" speed="8.33" length="4.58" shape="362.10,1472.47 362.83,1471.33 363.25,1470.49 363.50,1469.59 363.72,1468.25"/>
    </edge>
    <edge id=":1437485369_3" function="internal">
        <lane id=":1437485369_3_0" index="0" disallow="tram rail_urban rail rail_electric pedestrian ship" speed="8.33" length="9.29" shape="362.10,1472.47 363.64,1470.76 364.85,1470.85 365.73,1472.73 366.27,1476.39"/>
    </edge>
    <edge id=":1437485369_c0" function="crossing" crossingEdges="130547038 -130547038">
        <lane id=":1437485369_c0_0" index="0" allow="pedestrian" speed="1.00" length="6.50" width="4.00" shape="361.84,1469.99 368.26,1470.97"/>
    </edge>
    <edge id=":1437485369_w0" function="walkingarea">
        <lane id=":1437485369_w0_0" index="0" allow="pedestrian" speed="1.00" length="4.86" width="4.00" shape="367.96,1476.26 369.96,1476.09 370.64,1469.31 368.66,1469.01 368.30,1470.53 368.07,1471.67 367.89,1472.62 367.79,1473.56 367.77,1474.71"/>
    </edge>
    <edge id=":1437485369_w1" function="walkingarea">
        <lane id=":1437485369_w1_0" index="0" allow="pedestrian" speed="1.00" length="2.62" width="4.00" shape="362.04,1468.00 360.06,1467.70 359.01,1470.43 360.68,1471.53 361.21,1470.90 361.52,1470.37 361.74,1469.91 361.89,1469.43 362.01,1468.82"/>
    </edge>
    <edge id=":1437485390_0" function="internal">
        <lane id=":1437485390_0_0" index="0" allow="bicycle" speed="11.11" length="8.49" width="1.50" shape="373.96,1491.95 376.19,1492.38 377.77,1492.02 379.31,1491.13 381.45,1489.97"/>
        <lane id=":1437485390_0_1" index="1" disallow="tram rail_urban rail rail_electric bicycle pedestrian ship" speed="11.11" length="8.49" shape="373.96,1491.95 376.45,1492.80 378.28,1493.24 380.08,1493.10 382.47,1492.20"/>
    </edge>
    <edge id=":1437485390_2" function="internal">
        <lane id=":1437485390_2_0" index="0" allow="bicycle" speed="13.89" length="1.45" width="1.50" shape="380.18,1490.54 381.45,1489.97"/>
        <lane id=":1437485390_2_1" index="1" disallow="tram rail_urban rail rail_electric bicycle pedestrian ship" speed="13.89" length="1.45" shape="381.17,1492.78 382.47,1492.20"/>
        <lane id=":1437485390_2_2" index="2" disallow="tram rail_urban rail rail_electric bicycle pedestrian ship" speed="13.89" length="1.45" shape="382.51,1495.79 383.85,1495.20"/>
        <lane id=":1437485390_2_3" index="3" disallow="tram rail_urban rail rail_electric bicycle pedestrian ship" speed="13.89" length="1.45" shape="383.85,1498.81 385.23,1498.19"/>
    </edge>
    <edge id=":1437485390_c0" function="crossing" crossingEdges="4756454#1">
        <lane id=":1437485390_c0_0" index="0" allow="pedestrian" speed="1.00" length="3.20" width="4.00" shape="375.37,1494.09 376.36,1491.05"/>
    </edge>
    <edge id=":1437485390_w0" function="walkingarea">
        <lane id=":1437485390_w0_0" index="0" allow="pedestrian" speed="1.00" length="4.26" width="4.00" shape="381.10,1489.20 379.84,1486.47 375.44,1488.54 374.82,1490.44 374.45,1490.43 375.85,1490.81 376.94,1490.92 377.85,1490.78 378.75,1490.45 379.80,1489.94"/>
    </edge>
    <edge id=":1437485390_w1" function="walkingarea">
        <lane id=":1437485390_w1_0" index="0" allow="pedestrian" speed="1.00" length="6.88" width="4.00" shape="377.27,1494.71 373.46,1493.47 378.61,1487.02 379.83,1489.76"/>
    </edge>
    <edge id=":1437485399_0" function="internal">
        <lane id=":1437485399_0_0" index="0" allow="bicycle" speed="13.89" length="3.46" width="1.50" shape="293.19,1526.92 293.96,1526.35 294.24,1525.63 294.53,1524.90 295.29,1524.32"/>
        <lane id=":1437485399_0_1" index="1" disallow="tram rail_urban rail rail_electric pedestrian ship" speed="13.89" length="3.46" shape="293.19,1526.92 294.06,1526.72 294.70,1526.76 295.34,1526.80 296.21,1526.59"/>
        <lane id=":1437485399_0_2" index="2" disallow="tram rail_urban rail rail_electric pedestrian ship" speed="13.89" length="3.46" shape="294.07,1529.20 295.04,1529.11 295.76,1529.44 296.47,1529.76 297.44,1529.65"/>
        <lane id=":1437485399_0_3" index="3" disallow="tram rail_urban rail rail_electric pedestrian ship" speed="13.89" length="3.46" shape="295.25,1532.29 296.24,1532.18 296.97,1532.51 297.70,1532.83 298.68,1532.71"/>
        <lane id=":1437485399_0_4" index="4" disallow="tram rail_urban rail rail_electric pedestrian ship" speed="13.89" length="3.46" shape="296.43,1535.37 297.44,1535.26 298.18,1535.58 298.92,1535.89 299.92,1535.77"/>
    </edge>
    <edge id=":1437485399_w0" function="walkingarea">
        <lane id=":1437485399_w0_0" index="0" allow="pedestrian" speed="1.00" length="3.30" width="3.00" shape="294.97,1523.53 293.84,1520.75 291.81,1523.32 292.89,1526.12 293.51,1525.86 293.81,1525.42 293.97,1524.93 294.13,1524.44 294.42,1523.99"/>
    </edge>
    <edge id=":1439089605_0" function="internal">
        <lane id=":1439089605_0_0" index="0" allow="bicycle" speed="13.89" length="3.65" width="1.00" shape="715.41,1311.23 712.75,1308.55"/>
        <lane id=":1439089605_0_1" index="1" disallow="tram rail_urban rail rail_electric bicycle pedestrian ship" speed="13.89" length="3.65" shape="716.96,1309.67 714.36,1307.04"/>
        <lane id=":1439089605_0_2" index="2" disallow="tram rail_urban rail rail_electric bicycle pedestrian ship" speed="13.89" length="3.65" shape="719.22,1307.27 716.77,1304.79"/>
    </edge>
    <edge id=":1439089605_c0" function="crossing" crossingEdges="4824557#0">
        <lane id=":1439089605_c0_0" index="0" allow="pedestrian" speed="1.00" length="7.60" width="4.00" shape="718.86,1304.73 713.61,1310.22"/>
    </edge>
    <edge id=":1439089605_w0" function="walkingarea">
        <lane id=":1439089605_w0_0" index="0" allow="pedestrian" speed="1.00" length="3.56" width="4.00" shape="712.31,1308.95 710.12,1311.00 715.02,1307.15 715.89,1308.95 712.94,1313.85 715.00,1311.67 712.17,1308.84"/>
    </edge>
    <edge id=":1439089605_w1" function="walkingarea">
        <lane id=":1439089605_w1_0" index="0" allow="pedestrian" speed="1.00" length="1.93" width="4.00" shape="717.42,1303.35 720.31,1306.11 721.34,1305.63 720.25,1303.96"/>
    </edge>
    <edge id=":1439089663_0" function="internal">
        <lane id=":1439089663_0_0" index="0" allow="bicycle" speed="4.17" length="4.39" width="1.00" shape="543.47,1409.56 544.22,1409.26 544.97,1408.64 545.70,1407.72 546.42,1406.48"/>
    </edge>
    <edge id=":1439089663_1" function="internal">
        <lane id=":1439089663_1_0" index="0" allow="bicycle pedestrian" speed="2.78" length="4.36" width="2.00" shape="543.47,1409.56 547.77,1408.80"/>
    </edge>
    <edge id=":1439089663_w0" function="walkingarea">
        <lane id=":1439089663_w0_0" index="0" allow="pedestrian" speed="1.00" length="4.36" width="2.00" shape="543.29,1408.57 543.65,1410.54 547.94,1409.78 547.60,1407.81"/>
    </edge>
    <edge id=":1439089664_0" function="internal">
        <lane id=":1439089664_0_0" index="0" allow="bicycle pedestrian" speed="2.78" length="6.77" width="2.00" shape="532.76,1412.04 534.56,1411.20 535.88,1410.83 537.26,1410.64 539.25,1410.33"/>
    </edge>
    <edge id=":1439089664_w0" function="walkingarea">
        <lane id=":1439089664_w0_0" index="0" allow="pedestrian" speed="1.00" length="5.49" width="2.00" shape="539.44,1411.32 539.07,1409.35 538.62,1408.23 537.00,1407.05 532.29,1411.15 533.23,1412.92 538.08,1411.54 537.06,1411.66 536.21,1411.78 535.40,1411.97 534.45,1412.32"/>
    </edge>
    <edge id=":1439361029_0" function="internal">
        <lane id=":1439361029_0_0" index="0" disallow="tram rail_urban rail rail_electric pedestrian ship" speed="8.33" length="2.24" shape="603.76,1333.22 601.57,1332.75"/>
    </edge>
    <edge id=":1439361029_1" function="internal">
        <lane id=":1439361029_1_0" index="0" disallow="tram rail_urban rail rail_electric pedestrian ship" speed="8.33" length="2.41" shape="603.76,1333.22 602.72,1332.15 602.49,1331.26"/>
    </edge>
    <edge id=":1439361029_4" function="internal">
        <lane id=":1439361029_4_0" index="0" speed="8.33" length="2.41" shape="602.49,1331.26 603.07,1330.54 604.45,1330.00"/>
    </edge>
    <edge id=":1439361029_2" function="internal">
        <lane id=":1439361029_2_0" index="0" disallow="tram rail_urban rail rail_electric pedestrian ship" speed="8.33" length="1.60" shape="603.32,1330.37 603.23,1330.08 603.39,1329.92 603.80,1329.89 604.45,1330.00"/>
    </edge>
    <edge id=":1439361029_3" function="internal">
        <lane id=":1439361029_3_0" index="0" disallow="tram rail_urban rail rail_electric pedestrian ship" speed="8.33" length="1.33" shape="603.32,1330.37 603.77,1331.62"/>
    </edge>
    <edge id=":1439361029_5" function="internal">
        <lane id=":1439361029_5_0" index="0" speed="8.33" length="2.98" shape="603.77,1331.62 603.63,1332.44 602.90,1332.81 601.57,1332.75"/>
    </edge>
    <edge id=":1439361029_c0" function="crossing" crossingEdges="130764246#0 -130764246#0">
        <lane id=":1439361029_c0_0" index="0" allow="pedestrian" speed="1.00" length="6.50" width="4.00" shape="602.83,1328.01 601.46,1334.36"/>
    </edge>
    <edge id=":1439361029_w0" function="walkingarea">
        <lane id=":1439361029_w0_0" index="0" allow="pedestrian" speed="1.00" length="1.94" width="4.00" shape="601.13,1334.39 600.61,1336.32 602.98,1336.84 603.40,1334.88 599.51,1333.94"/>
    </edge>
    <edge id=":1439361029_w1" function="walkingarea">
        <lane id=":1439361029_w1_0" index="0" allow="pedestrian" speed="1.00" length="2.32" width="4.00" shape="604.81,1328.33 605.23,1326.38 606.49,1328.46 604.77,1329.49 604.47,1329.15 604.35,1328.84 604.32,1328.61 604.38,1328.47 604.54,1328.41"/>
    </edge>
    <edge id=":1445646724_0" function="internal">
        <lane id=":1445646724_0_0" index="0" allow="bicycle pedestrian" speed="2.78" length="4.83" width="2.00" shape="382.44,1485.57 383.83,1485.21 384.76,1484.92 385.67,1484.55 386.98,1483.97"/>
    </edge>
    <edge id=":1445646724_w0" function="walkingarea">
        <lane id=":1445646724_w0_0" index="0" allow="pedestrian" speed="1.00" length="4.02" width="2.00" shape="384.81,1487.68 386.63,1486.87 387.39,1484.88 386.57,1483.06 382.19,1484.60 382.68,1486.54 384.56,1487.23 384.27,1486.88 383.94,1486.64 383.57,1486.50 383.15,1486.47"/>
    </edge>
    <edge id=":1445646727_0" function="internal">