<?xml version="1.0" encoding="UTF-8"?>
<!-- generated on 2020-07-14 20:17:47.478458 by $Id$ via randomTrips.py
  options: 
-->
<routes xmlns:xsi="http://www.w3.org/2001/XMLSchema-instance" xsi:noNamespaceSchemaLocation="http://sumo.dlr.de/xsd/routes_file.xsd">
    <vType id="bus" vClass="bus">
    </vType>
    <trip id="bus0" depart="0.00" departLane="best" from="54170891#0" to="-4824704#3" type="bus"/>
    <trip id="bus1" depart="24.95" departLane="best" from="-142517768#10" to="138419768#1" type="bus"/>
    <trip id="bus2" depart="49.91" departLane="best" from="4824704#2" to="4760369#2" type="bus"/>
    <trip id="bus3" depart="74.86" departLane="best" from="84657869#2" to="150276881" type="bus"/>
    <trip id="bus4" depart="99.82" departLane="best" from="4824704#2" to="4824567#3" type="bus"/>
    <trip id="bus5" depart="124.77" departLane="best" from="-4824572" to="149357425#1" type="bus"/>
    <trip id="bus7" depart="174.68" departLane="best" from="138419767#1" to="84657869#0" type="bus"/>
    <trip id="bus8" depart="199.64" departLane="best" from="98428996#0" to="4723926" type="bus"/>
    <trip id="bus13" depart="324.41" departLane="best" from="-4824698#0" to="265499402#4" type="bus"/>
    <trip id="bus14" depart="349.36" departLane="best" from="265499406#0" to="84657872#0" type="bus"/>
    <trip id="bus15" depart="374.32" departLane="best" from="4824695#2" to="37035107#1" type="bus"/>
    <trip id="bus18" depart="449.18" departLane="best" from="-37035107#1" to="4824695#1" type="bus"/>
    <trip id="bus19" depart="474.13" departLane="best" from="138419767#0" to="4828841#1" type="bus"/>
    <trip id="bus21" depart="524.04" departLane="best" from="98428996#2" to="4723926" type="bus"/>
    <trip id="bus22" depart="549.00" departLane="best" from="260923013#0" to="314789438#0" type="bus"/>
    <trip id="bus23" depart="573.95" departLane="best" from="4828726#0" to="-4824698#1" type="bus"/>
    <trip id="bus24" depart="598.91" departLane="best" from="4824704#2" to="138419767#0" type="bus"/>
    <trip id="bus27" depart="673.77" departLane="best" from="153897364#2" to="98638605#2" type="bus"/>
    <trip id="bus28" depart="698.72" departLane="best" from="84657869#2" to="98638605#3" type="bus"/>
    <trip id="bus29" depart="723.68" departLane="best" from="314789426#0" to="4828726#2" type="bus"/>
    <trip id="bus30" depart="748.63" departLane="best" from="4218501#0" to="4756456" type="bus"/>
    <trip id="bus32" depart="798.54" departLane="best" from="138347489#2" to="259409010#1" type="bus"/>
    <trip id="bus33" depart="823.50" departLane="best" from="138419767#0" to="84657866#2" type="bus"/>
    <trip id="bus34" depart="848.45" departLane="best" from="4824712" to="4760369#4" type="bus"/>
    <trip id="bus35" depart="873.41" departLane="best" from="-4824704#4" to="130547039" type="bus"/>
    <trip id="bus36" depart="898.36" departLane="best" from="-4824572" to="371146249" type="bus"/>
    <trip id="bus37" depart="923.31" departLane="best" from="209114515#0" to="149357425#1" type="bus"/>
    <trip id="bus40" depart="998.18" departLane="best" from="4824707" to="4834297" type="bus"/>
    <trip id="bus41" depart="1023.13" departLane="best" from="4824707" to="142519288#0" type="bus"/>
    <trip id="bus44" depart="1098.00" departLane="best" from="84657870#2" to="149357425#1" type="bus"/>
    <trip id="bus45" depart="1122.95" departLane="best" from="96136747#0" to="37035107#0" type="bus"/>
    <trip id="bus46" depart="1147.90" departLane="best" from="-4824695#1" to="265499402#4" type="bus"/>
    <trip id="bus48" depart="1197.81" departLane="best" from="152445636#3" to="-4824698#1" type="bus"/>
    <trip id="bus49" depart="1222.77" departLane="best" from="142517768#10" to="4828724#2" type="bus"/>
    <trip id="bus50" depart="1247.72" departLane="best" from="142517768#0" to="259409010#2" type="bus"/>
    <trip id="bus51" depart="1272.68" departLane="best" from="-4824704#2" to="260923013#1" type="bus"/>
    <trip id="bus52" depart="1297.63" departLane="best" from="314789428#1" to="-4218501#0" type="bus"/>
    <trip id="bus53" depart="1322.59" departLane="best" from="265499406#0" to="4824703#8" type="bus"/>
    <trip id="bus54" depart="1347.54" departLane="best" from="4693898#0" to="98638605#3" type="bus"/>
    <trip id="bus55" depart="1372.49" departLane="best" from="4824712" to="37035107#1" type="bus"/>
    <trip id="bus56" depart="1397.45" departLane="best" from="438898636" to="149357425#0" type="bus"/>
    <trip id="bus59" depart="1472.31" departLane="best" from="4218426#1" to="4760369#1" type="bus"/>
    <trip id="bus60" depart="1497.27" departLane="best" from="-142517768#10" to="4723926" type="bus"/>
    <trip id="bus63" depart="1572.13" departLane="best" from="84657867" to="138419768#1" type="bus"/>
    <trip id="bus64" depart="1597.08" departLane="best" from="-4824704#1" to="4756454#1" type="bus"/>
    <trip id="bus65" depart="1622.04" departLane="best" from="371146256" to="142356191#4" type="bus"/>
    <trip id="bus69" depart="1721.86" departLane="best" from="-4824702#2" to="98638605#0" type="bus"/>
    <trip id="bus70" depart="1746.81" departLane="best" from="4828723#3" to="4824704#4" type="bus"/>
    <trip id="bus75" depart="1871.58" departLane="best" from="-138419767#1" to="84657870#0" type="bus"/>
    <trip id="bus78" depart="1946.45" departLane="best" from="4218426#0" to="314789426#3" type="bus"/>
    <trip id="bus79" depart="1971.40" departLane="best" from="142356191#0" to="-96136747#0" type="bus"/>
    <trip id="bus80" depart="1996.36" departLane="best" from="314789433#4" to="149357425#0" type="bus"/>
    <trip id="bus81" depart="2021.31" departLane="best" from="130764244#1" to="-4218501#0" type="bus"/>
    <trip id="bus83" depart="2071.22" departLane="best" from="4824710" to="259409010#2" type="bus"/>
    <trip id="bus84" depart="2096.17" departLane="best" from="142356191#0" to="130764246#1" type="bus"/>
    <trip id="bus86" depart="2146.08" departLane="best" from="4824712" to="4221194#2" type="bus"/>
    <trip id="bus87" depart="2171.04" departLane="best" from="84657869#0" to="98638605#3" type="bus"/>
    <trip id="bus90" depart="2245.90" departLane="best" from="149539965#0" to="150276881" type="bus"/>
    <trip id="bus91" depart="2270.86" departLane="best" from="142517769#1" to="4760369#0" type="bus"/>
    <trip id="bus92" depart="2295.81" departLane="best" from="142356191#0" to="84657869#3" type="bus"/>
    <trip id="bus93" depart="2320.76" departLane="best" from="265499406#0" to="149539968" type="bus"/>
    <trip id="bus94" depart="2345.72" departLane="best" from="142517768#7" to="96136747#1" type="bus"/>
    <trip id="bus95" depart="2370.67" departLane="best" from="4824695#1" to="142356185#0" type="bus"/>
    <trip id="bus96" depart="2395.63" departLane="best" from="4760371" to="314789437#0" type="bus"/>
    <trip id="bus97" depart="2420.58" departLane="best" from="96136747#0" to="142517768#10" type="bus"/>
    <trip id="bus99" depart="2470.49" departLane="best" from="314789426#2" to="4824704#4" type="bus"/>
    <trip id="bus101" depart="2520.40" departLane="best" from="4218501#0" to="98638605#3" type="bus"/>
    <trip id="bus103" depart="2570.31" departLane="best" from="265499406#0" to="149539968" type="bus"/>
    <trip id="bus104" depart="2595.26" departLane="best" from="4824698#1" to="-260923013#0" type="bus"/>
    <trip id="bus106" depart="2645.17" departLane="best" from="4652507#2" to="4824704#4" type="bus"/>
    <trip id="bus108" depart="2695.08" departLane="best" from="665610741" to="98638605#3" type="bus"/>
    <trip id="bus109" depart="2720.04" departLane="best" from="-142517768#9" to="4824703#6" type="bus"/>
    <trip id="bus110" depart="2744.99" departLane="best" from="142356191#0" to="209114514#1" type="bus"/>
    <trip id="bus111" depart="2769.94" departLane="best" from="130528361#0" to="-4824704#0" type="bus"/>
    <trip id="bus113" depart="2819.85" departLane="best" from="138347505#2" to="142517768#8" type="bus"/>
    <trip id="bus114" depart="2844.81" departLane="best" from="-138419767#1" to="4824704#0" type="bus"/>
    <trip id="bus116" depart="2894.72" departLane="best" from="149357439" to="43324938#2" type="bus"/>
    <trip id="bus117" depart="2919.67" departLane="best" from="4218426#0" to="4221194#2" type="bus"/>
    <trip id="bus118" depart="2944.63" departLane="best" from="142356191#0" to="4824703#7" type="bus"/>
    <trip id="bus119" depart="2969.58" departLane="best" from="-142517768#10" to="4877725" type="bus"/>
    <trip id="bus120" depart="2994.53" departLane="best" from="-4824704#4" to="84657870#0" type="bus"/>
    <trip id="bus121" depart="3019.49" departLane="best" from="-4824704#4" to="27729257#0" type="bus"/>
    <trip id="bus123" depart="3069.40" departLane="best" from="152445636#0" to="259409010#2" type="bus"/>
    <trip id="bus124" depart="3094.35" departLane="best" from="4218501#0" to="-142517768#0" type="bus"/>
    <trip id="bus125" depart="3119.31" departLane="best" from="4824703#1" to="142517768#10" type="bus"/>
    <trip id="bus126" depart="3144.26" departLane="best" from="4828726#1" to="150276881" type="bus"/>
    <trip id="bus129" depart="3219.12" departLane="best" from="27729257#0" to="259409010#2" type="bus"/>
    <trip id="bus130" depart="3244.08" departLane="best" from="438898636" to="37035107#1" type="bus"/>
    <trip id="bus131" depart="3269.03" departLane="best" from="4221194#1" to="-96136747#0" type="bus"/>
    <trip id="bus132" depart="3293.99" departLane="best" from="4756455#4" to="4828726#2" type="bus"/>
    <trip id="bus133" depart="3318.94" departLane="best" from="142519288#1" to="27729257#0" type="bus"/>
    <trip id="bus134" depart="3343.90" departLane="best" from="-4824572" to="4824567#3" type="bus"/>
    <trip id="bus135" depart="3368.85" departLane="best" from="149539965#4" to="4756454#0" type="bus"/>
    <trip id="bus136" depart="3393.81" departLane="best" from="4824573#0" to="4828841#1" type="bus"/>
    <trip id="bus137" depart="3418.76" departLane="best" from="4218426#0" to="142356191#2" type="bus"/>
    <trip id="bus138" depart="3443.71" departLane="best" from="4218426#0" to="4824704#1" type="bus"/>
    <trip id="bus139" depart="3468.67" departLane="best" from="138419767#1" to="138347505#2" type="bus"/>
    <trip id="bus140" depart="3493.62" departLane="best" from="4756456" to="149539965#4" type="bus"/>
    <trip id="bus141" depart="3518.58" departLane="best" from="438898636" to="-142517768#6" type="bus"/>
    <trip id="bus142" depart="3543.53" departLane="best" from="209114515#3" to="149357425#1" type="bus"/>
</routes>
