<?xml version="1.0" encoding="UTF-8"?>
<!-- generated on 2020-07-14 20:17:47.850627 by $Id$ via randomTrips.py
  options: 
-->
<routes xmlns:xsi="http://www.w3.org/2001/XMLSchema-instance" xsi:noNamespaceSchemaLocation="http://sumo.dlr.de/xsd/routes_file.xsd">
    <vType id="motorcycle" speedFactor="normc(1.00,0.10,0.20,2.00)" vClass="motorcycle">
    </vType>
    <trip id="moto0" depart="0.00" departLane="best" from="4652507#0" to="-142517768#0" type="motorcycle"/>
    <trip id="moto1" depart="24.95" departLane="best" from="142356191#2" to="142356185#0" type="motorcycle"/>
    <trip id="moto3" depart="74.86" departLane="best" from="627278687" to="-4824702#1" type="motorcycle"/>
    <trip id="moto4" depart="99.82" departLane="best" from="260923013#0" to="-142517768#3" type="motorcycle"/>
    <trip id="moto5" depart="124.77" departLane="best" from="138347489#4" to="314789435#1" type="motorcycle"/>
    <trip id="moto6" depart="149.73" departLane="best" from="-142517768#10" to="138347505#2" type="motorcycle"/>
    <trip id="moto7" depart="174.68" departLane="best" from="4652507#3" to="371146247" type="motorcycle"/>
    <trip id="moto8" depart="199.64" departLane="best" from="138347489#5" to="43324938#3" type="motorcycle"/>
    <trip id="moto9" depart="224.59" departLane="best" from="4824704#3" to="-130764246#1" type="motorcycle"/>
    <trip id="moto10" depart="249.54" departLane="best" from="4824704#2" to="4760369#2" type="motorcycle"/>
    <trip id="moto11" depart="274.50" departLane="best" from="149539965#4" to="132964155#0" type="motorcycle"/>
    <trip id="moto12" depart="299.45" departLane="best" from="84657870#1" to="152445636#0" type="motorcycle"/>
    <trip id="moto13" depart="324.41" departLane="best" from="-4824572" to="-4824704#2" type="motorcycle"/>
    <trip id="moto15" depart="374.32" departLane="best" from="4824704#2" to="4824568#0" type="motorcycle"/>
    <trip id="moto16" depart="399.27" departLane="best" from="314789437#2" to="96136747#1" type="motorcycle"/>
    <trip id="moto17" depart="424.23" departLane="best" from="171934808#0" to="371146256" type="motorcycle"/>
    <trip id="moto18" depart="449.18" departLane="best" from="4828723#0" to="450074244" type="motorcycle"/>
    <trip id="moto19" depart="474.13" departLane="best" from="4828840#0" to="4221194#3" type="motorcycle"/>
    <trip id="moto20" depart="499.09" departLane="best" from="4760369#2" to="-142519288#1" type="motorcycle"/>
    <trip id="moto21" depart="524.04" departLane="best" from="138347498" to="142519288#0" type="motorcycle"/>
    <trip id="moto23" depart="573.95" departLane="best" from="-4824698#1" to="142517769#0" type="motorcycle"/>
    <trip id="moto25" depart="623.86" departLane="best" from="153897364#7" to="138419767#0" type="motorcycle"/>
    <trip id="moto26" depart="648.82" departLane="best" from="142356191#0" to="84657869#0" type="motorcycle"/>
    <trip id="moto27" depart="673.77" departLane="best" from="4652507#3" to="450074238" type="motorcycle"/>
    <trip id="moto28" depart="698.72" departLane="best" from="130764246#1" to="4824567#3" type="motorcycle"/>
    <trip id="moto29" depart="723.68" departLane="best" from="130764244#0" to="209114514#1" type="motorcycle"/>
    <trip id="moto30" depart="748.63" departLane="best" from="98428996#1" to="4693898#3" type="motorcycle"/>
    <trip id="moto32" depart="798.54" departLane="best" from="4828724#0" to="4824702#0" type="motorcycle"/>
    <trip id="moto33" depart="823.50" departLane="best" from="138347505#0" to="-142517768#5" type="motorcycle"/>
    <trip id="moto34" depart="848.45" departLane="best" from="142517769#2" to="142517768#6" type="motorcycle"/>
    <trip id="moto35" depart="873.41" departLane="best" from="138347489#1" to="84657869#2" type="motorcycle"/>
    <trip id="moto39" depart="973.22" departLane="best" from="142356191#0" to="142517766#1" type="motorcycle"/>
    <trip id="moto42" depart="1048.09" departLane="best" from="209114514#1" to="138419768#1" type="motorcycle"/>
    <trip id="moto44" depart="1098.00" departLane="best" from="-4824572" to="-142519288#1" type="motorcycle"/>
    <trip id="moto45" depart="1122.95" departLane="best" from="-4824702#2" to="4652507#2" type="motorcycle"/>
    <trip id="moto46" depart="1147.90" departLane="best" from="4824703#6" to="265499402#1" type="motorcycle"/>
    <trip id="moto47" depart="1172.86" departLane="best" from="-37035107#1" to="209114514#2" type="motorcycle"/>
    <trip id="moto49" depart="1222.77" departLane="best" from="90697744" to="4828840#3" type="motorcycle"/>
    <trip id="moto50" depart="1247.72" departLane="best" from="-138419767#1" to="4824567#1" type="motorcycle"/>
    <trip id="moto51" depart="1272.68" departLane="best" from="4756454#0" to="37035107#0" type="motorcycle"/>
    <trip id="moto52" depart="1297.63" departLane="best" from="142356191#0" to="4693898#3" type="motorcycle"/>
    <trip id="moto55" depart="1372.49" departLane="best" from="4834297" to="142517768#3" type="motorcycle"/>
    <trip id="moto56" depart="1397.45" departLane="best" from="314789428#1" to="138347489#4" type="motorcycle"/>
    <trip id="moto57" depart="1422.40" departLane="best" from="84657862#0" to="4834297" type="motorcycle"/>
    <trip id="moto58" depart="1447.36" departLane="best" from="142517768#4" to="4693898#2" type="motorcycle"/>
    <trip id="moto60" depart="1497.27" departLane="best" from="4824697#2" to="37035107#1" type="motorcycle"/>
    <trip id="moto61" depart="1522.22" departLane="best" from="4824702#1" to="314994947#1" type="motorcycle"/>
    <trip id="moto62" depart="1547.18" departLane="best" from="-130547038" to="149539968" type="motorcycle"/>
    <trip id="moto64" depart="1597.08" departLane="best" from="4877725" to="4828723#2" type="motorcycle"/>
    <trip id="moto65" depart="1622.04" departLane="best" from="142517768#8" to="-4218501#0" type="motorcycle"/>
    <trip id="moto66" depart="1646.99" departLane="best" from="4877725" to="84657870#0" type="motorcycle"/>
    <trip id="moto68" depart="1696.90" departLane="best" from="-371146256" to="4824697#2" type="motorcycle"/>
    <trip id="moto69" depart="1721.86" departLane="best" from="4824697#3" to="130547038" type="motorcycle"/>
    <trip id="moto71" depart="1771.77" departLane="best" from="142356191#0" to="4834297" type="motorcycle"/>
    <trip id="moto72" depart="1796.72" departLane="best" from="260923013#0" to="138419767#1" type="motorcycle"/>
    <trip id="moto73" depart="1821.67" departLane="best" from="314994947#0" to="4824568#0" type="motorcycle"/>
    <trip id="moto77" depart="1921.49" departLane="best" from="-4824704#3" to="142356185#0" type="motorcycle"/>
    <trip id="moto78" depart="1946.45" departLane="best" from="149539965#1" to="43324938#2" type="motorcycle"/>
    <trip id="moto80" depart="1996.36" departLane="best" from="-371146256" to="4693898#0" type="motorcycle"/>
    <trip id="moto81" depart="2021.31" departLane="best" from="138347505#0" to="84657862#0" type="motorcycle"/>
    <trip id="moto82" depart="2046.26" departLane="best" from="4828840#0" to="-4693898#3" type="motorcycle"/>
    <trip id="moto83" depart="2071.22" departLane="best" from="138347514#1" to="4756454#0" type="motorcycle"/>
    <trip id="moto84" depart="2096.17" departLane="best" from="138347489#2" to="130547039" type="motorcycle"/>
    <trip id="moto85" depart="2121.13" departLane="best" from="84657866#1" to="4221194#1" type="motorcycle"/>
    <trip id="moto87" depart="2171.04" departLane="best" from="4824704#3" to="138347489#9" type="motorcycle"/>
    <trip id="moto88" depart="2195.99" departLane="best" from="-4824698#0" to="265499402#5" type="motorcycle"/>
    <trip id="moto90" depart="2245.90" departLane="best" from="4824568#2" to="4756455#2" type="motorcycle"/>
    <trip id="moto91" depart="2270.86" departLane="best" from="96136748#1" to="-4824704#2" type="motorcycle"/>
    <trip id="moto93" depart="2320.76" departLane="best" from="4828840#0" to="142517766#2" type="motorcycle"/>
    <trip id="moto95" depart="2370.67" departLane="best" from="260923013#0" to="142517769#0" type="motorcycle"/>
    <trip id="moto97" depart="2420.58" departLane="best" from="265499406#0" to="4828840#3" type="motorcycle"/>
    <trip id="moto98" depart="2445.54" departLane="best" from="371146247" to="-260923013#0" type="motorcycle"/>
    <trip id="moto100" depart="2495.45" departLane="best" from="88111450" to="84657866#0" type="motorcycle"/>
    <trip id="moto101" depart="2520.40" departLane="best" from="4828726#0" to="138347489#0" type="motorcycle"/>
    <trip id="moto102" depart="2545.35" departLane="best" from="314789426#1" to="138419767#1" type="motorcycle"/>
    <trip id="moto104" depart="2595.26" departLane="best" from="171934808#0" to="98428996#1" type="motorcycle"/>
    <trip id="moto105" depart="2620.22" departLane="best" from="142356191#0" to="4824703#1" type="motorcycle"/>
    <trip id="moto106" depart="2645.17" departLane="best" from="27557419#1" to="265499402#2" type="motorcycle"/>
    <trip id="moto107" depart="2670.13" departLane="best" from="84657870#1" to="98638605#3" type="motorcycle"/>
    <trip id="moto108" depart="2695.08" departLane="best" from="371146256" to="4824567#1" type="motorcycle"/>
    <trip id="moto109" depart="2720.04" departLane="best" from="130528361#1" to="149357425#0" type="motorcycle"/>
    <trip id="moto110" depart="2744.99" departLane="best" from="88111450" to="4221194#4" type="motorcycle"/>
    <trip id="moto112" depart="2794.90" departLane="best" from="-260923013#1" to="43324938#1" type="motorcycle"/>
    <trip id="moto115" depart="2869.76" departLane="best" from="-4693898#1" to="138347489#6" type="motorcycle"/>
    <trip id="moto116" depart="2894.72" departLane="best" from="4221194#4" to="4756455#2" type="motorcycle"/>
    <trip id="moto117" depart="2919.67" departLane="best" from="138347514#0" to="-96136748#0" type="motorcycle"/>
    <trip id="moto118" depart="2944.63" departLane="best" from="627278687" to="142517766#1" type="motorcycle"/>
    <trip id="moto119" depart="2969.58" departLane="best" from="4221194#4" to="450074244" type="motorcycle"/>
    <trip id="moto121" depart="3019.49" departLane="best" from="314789435#1" to="84657867" type="motorcycle"/>
    <trip id="moto122" depart="3044.44" departLane="best" from="137275200#1" to="4824567#0" type="motorcycle"/>
    <trip id="moto124" depart="3094.35" departLane="best" from="4726268" to="149357425#1" type="motorcycle"/>
    <trip id="moto125" depart="3119.31" departLane="best" from="142517769#2" to="4824695#1" type="motorcycle"/>
    <trip id="moto127" depart="3169.22" departLane="best" from="98638605#2" to="98638605#3" type="motorcycle"/>
    <trip id="moto128" depart="3194.17" departLane="best" from="-4218501#0" to="138419767#1" type="motorcycle"/>
    <trip id="moto129" depart="3219.12" departLane="best" from="142356191#0" to="84657867" type="motorcycle"/>
    <trip id="moto131" depart="3269.03" departLane="best" from="153897364#7" to="132964155#1" type="motorcycle"/>
    <trip id="moto132" depart="3293.99" departLane="best" from="4828723#1" to="4760369#4" type="motorcycle"/>
    <trip id="moto133" depart="3318.94" departLane="best" from="438898636" to="98428996#2" type="motorcycle"/>
    <trip id="moto134" depart="3343.90" departLane="best" from="4693898#1" to="-130764246#1" type="motorcycle"/>
    <trip id="moto135" depart="3368.85" departLane="best" from="4824710" to="149357425#1" type="motorcycle"/>
    <trip id="moto137" depart="3418.76" departLane="best" from="-84657872#0" to="-96136747#0" type="motorcycle"/>
    <trip id="moto140" depart="3493.62" departLane="best" from="4824567#0" to="138347514#1" type="motorcycle"/>
    <trip id="moto141" depart="3518.58" departLane="best" from="450074243" to="142517768#3" type="motorcycle"/>
    <trip id="moto142" depart="3543.53" departLane="best" from="314789426#2" to="84657862#0" type="motorcycle"/>
    <trip id="moto143" depart="3568.49" departLane="best" from="4828724#2" to="-4824704#0" type="motorcycle"/>
    <trip id="moto144" depart="3593.44" departLane="best" from="260923013#0" to="142517769#0" type="motorcycle"/>
</routes>
