<?xml version="1.0" encoding="UTF-8"?>

<!-- generated on 07/14/20 20:17:47 by SUMO duarouter Version 0.32.0
<?xml version="1.0" encoding="UTF-8"?>

<configuration xmlns:xsi="http://www.w3.org/2001/XMLSchema-instance" xsi:noNamespaceSchemaLocation="http://sumo.dlr.de/xsd/duarouterConfiguration.xsd">

    <input>
        <net-file value="osm.net.xml"/>
        <route-files value="osm.motorcycle.trips.xml"/>
    </input>

    <output>
        <output-file value="osm.motorcycle.rou.xml"/>
        <alternatives-output value="osm.motorcycle.rou.alt.xml"/>
    </output>

    <processing>
        <ignore-errors value="true"/>
    </processing>

    <time>
        <begin value="0"/>
        <end value="3600.0"/>
    </time>

    <report>
        <no-warnings value="true"/>
        <no-step-log value="true"/>
    </report>

</configuration>
-->

<routes xmlns:xsi="http://www.w3.org/2001/XMLSchema-instance" xsi:noNamespaceSchemaLocation="http://sumo.dlr.de/xsd/routes_file.xsd">
    <vType id="motorcycle" speedFactor="normc(1.00,0.10,0.20,2.00)" vClass="motorcycle"/>
    <vehicle id="moto0" type="motorcycle" depart="0.00" departLane="best">
        <route edges="4652507#0 4652507#1 4652507#2 4652507#3 450074243 90697744 265499418 314789435#1 84657864#0 84657864#1 84657864#2 314789430 84657872#0 84657872#1 4693898#0 4693898#1 4693898#2 4693898#3 142517768#0 -142517768#0"/>
    </vehicle>
    <vehicle id="moto1" type="motorcycle" depart="24.95" departLane="best">
        <route edges="142356191#2 142356191#3 98638605#0 142356185#0"/>
    </vehicle>
    <vehicle id="moto3" type="motorcycle" depart="74.86" departLane="best">
        <route edges="627278687 149540118 627278688 -4824707 -4824695#1 -4824702#2 -4824702#1"/>
    </vehicle>
    <vehicle id="moto4" type="motorcycle" depart="99.82" departLane="best">
        <route edges="260923013#0 -260923013#0 4760369#0 4221194#1 4221194#2 4834297 -142517768#3"/>
    </vehicle>
    <vehicle id="moto5" type="motorcycle" depart="124.77" departLane="best">
        <route edges="138347489#4 138347489#5 138347489#6 4824703#1 4824703#2 4824703#5 4824702#1 4824702#2 4824695#1 4824708 96136748#0 96136748#1 96136747#0 96136747#1 371146256 84657867 314994947#0 314994947#1 142517770 27729257#0 27729257#1 314789430 84657872#0 84657872#1 152445636#0 152445636#1 152445636#2 152445636#3 4726265 665610741 209114497 90697744 265499418 314789435#1"/>
    </vehicle>
    <vehicle id="moto6" type="motorcycle" depart="149.73" departLane="best">
        <route edges="-142517768#10 -142517768#9 -142517768#7 -142517768#6 -142517768#5 -142517768#3 -142517768#2 -142517768#0 -4693898#3 -4693898#2 -4693898#1 -4693898#0 -84657872#1 -84657872#0 4828723#0 4828723#1 84657870#0 84657870#1 84657870#2 84657869#2 314789432 138347505#0 138347505#2"/>
    </vehicle>
    <vehicle id="moto7" type="motorcycle" depart="174.68" departLane="best">
        <route edges="4652507#3 450074243 90697744 265499418 314789435#1 314789436#0 314789436#1 84657866#0 84657866#1 84657866#2 84657865 98428996#0 98428996#1 98428996#2 -371146256 142517769#0 142517769#1 142517769#2 371146247"/>
    </vehicle>
    <vehicle id="moto8" type="motorcycle" depart="199.64" departLane="best">
        <route edges="138347489#5 138347489#6 4824703#1 4824703#2 4824703#5 4824702#1 4824702#2 132964155#0 132964155#1 314789433#4 66227388#0 66227388#1 4726271#0 4726271#1 43324938#1 43324938#2 43324938#3"/>
    </vehicle>
    <vehicle id="moto9" type="motorcycle" depart="224.59" departLane="best">
        <route edges="4824704#3 -4824704#3 4824698#0 4824698#1 4824698#2 4824708 96136748#0 96136748#1 96136747#0 96136747#1 371146256 84657867 314994947#0 314994947#1 142517770 27729257#0 27729257#1 314789430 84657872#0 84657872#1 4693898#0 4693898#1 4693898#2 4693898#3 142517768#0 142517768#1 142517768#3 142517768#4 142517768#6 142517768#7 142356191#2 142356191#3 4221194#0 4221194#1 4221194#2 4221194#3 4824568#0 130784151#1 130764246#0 130764246#1 -130764246#1"/>
    </vehicle>
    <vehicle id="moto10" type="motorcycle" depart="249.54" departLane="best">
        <route edges="4824704#2 4824698#0 4824698#1 4824698#2 4824708 96136748#0 96136748#1 96136747#0 96136747#1 371146256 84657867 314994947#0 314994947#1 142517770 27729257#0 27729257#1 314789430 84657872#0 84657872#1 4693898#0 4693898#1 4693898#2 4693898#3 142517768#0 142517768#1 142517768#3 142517768#4 142517768#6 142517768#7 142356191#2 142356191#3 4221194#0 4760369#1 4760369#2"/>
    </vehicle>
    <vehicle id="moto11" type="motorcycle" depart="274.50" departLane="best">
        <route edges="149539965#4 371146247 371146249 4218426#4 314789432 138347505#0 138347505#2 314789437#0 314789437#1 314789437#2 138347498 314789433#0 4824697#0 4824697#1 4824697#2 4824697#3 132964155#0"/>
    </vehicle>
    <vehicle id="moto12" type="motorcycle" depart="299.45" departLane="best">
        <route edges="84657870#1 84657870#2 84657869#2 314789432 138347505#0 138347505#2 314789437#0 314789437#1 314789437#2 142517770 27729257#0 27729257#1 314789430 84657872#0 84657872#1 152445636#0"/>
    </vehicle>
    <vehicle id="moto13" type="motorcycle" depart="324.41" departLane="best">
        <route edges="-4824572 4824573#0 4824573#1 4824573#2 4824573#3 153897364#2 153897364#5 153897364#6 153897364#7 153897364#8 314789414 66227390#0 66227390#2 209114515#0 209114515#1 209114515#2 209114515#3 439942510 265499418 314789435#1 4877725 314789433#4 66227388#0 66227388#1 4726271#0 4726271#1 138347489#0 138347489#1 138347489#2 138347489#3 138347489#4 138347489#5 138347489#6 4824703#1 4824703#2 4824703#5 -4824702#0 4824704#0 4824704#1 4824704#2 -4824704#2"/>
    </vehicle>
    <vehicle id="moto15" type="motorcycle" depart="374.32" departLane="best">
        <route edges="4824704#2 4824698#0 4824698#1 4824698#2 4824708 96136748#0 96136748#1 96136747#0 96136747#1 371146256 84657867 314994947#0 314994947#1 142517770 27729257#0 27729257#1 314789430 84657872#0 84657872#1 4693898#0 4693898#1 4693898#2 4693898#3 142517768#0 142517768#1 142517768#3 142517768#4 142517768#6 142517768#7 142356191#2 142356191#3 4221194#0 4221194#1 4221194#2 4221194#3 4824568#0"/>
    </vehicle>
    <vehicle id="moto16" type="motorcycle" depart="399.27" departLane="best">
        <route edges="314789437#2 142517770 27729257#0 27729257#1 314789430 84657872#0 -84657872#0 4828723#0 4828723#1 4828723#2 4828723#3 84657865 98428996#0 98428996#1 98428996#2 -371146256 -96136747#1 -96136747#0 96136747#0 96136747#1"/>
    </vehicle>
    <vehicle id="moto17" type="motorcycle" depart="424.23" departLane="best">
        <route edges="171934808#0 171934808#4 171934808#5 -84657872#1 -84657872#0 4828723#0 4828723#1 4828723#2 4828723#3 84657865 98428996#0 98428996#1 98428996#2 -371146256 371146256"/>
    </vehicle>
    <vehicle id="moto18" type="motorcycle" depart="449.18" departLane="best">
        <route edges="4828723#0 4828723#1 84657870#0 84657870#1 84657870#2 84657869#2 314789432 138347505#0 138347505#2 314789437#0 314789437#1 314789437#2 142517770 27729257#0 27729257#1 314789430 84657872#0 84657872#1 152445636#0 152445636#1 152445636#2 152445636#3 4726265 665610741 450074244"/>
    </vehicle>
    <vehicle id="moto19" type="motorcycle" depart="474.13" departLane="best">
        <route edges="4828840#0 4828840#1 4828840#2 4828840#3 149539965#4 371146247 371146249 4218426#4 314789432 138347505#0 138347505#2 314789437#0 314789437#1 314789437#2 142517770 27729257#0 27729257#1 314789430 84657872#0 84657872#1 4693898#0 4693898#1 4693898#2 4693898#3 142517768#0 142517768#1 142517768#3 142517768#4 142517768#6 142517768#7 142356191#2 142356191#3 4221194#0 4221194#1 4221194#2 4221194#3"/>
    </vehicle>
    <vehicle id="moto20" type="motorcycle" depart="499.09" departLane="best">
        <route edges="4760369#2 142517768#7 142356191#2 142356191#3 142356191#4 149357425#0 149357439 -142519288#1"/>
    </vehicle>
    <vehicle id="moto21" type="motorcycle" depart="524.04" departLane="best">
        <route edges="138347498 314789433#0 4824697#0 4824697#1 4824697#2 4824697#3 4824695#1 4824708 96136748#0 96136748#1 96136747#0 96136747#1 371146256 84657867 314994947#0 314994947#1 142517770 27729257#0 27729257#1 314789430 84657872#0 84657872#1 4693898#0 4693898#1 4693898#2 4693898#3 142517768#0 142517768#1 142517768#3 142517768#4 142517768#6 142517768#7 142356191#2 142356191#3 142356191#4 149357425#0 149357439 -142519288#1 -142519288#0 142519288#0"/>
    </vehicle>
    <vehicle id="moto23" type="motorcycle" depart="573.95" departLane="best">
        <route edges="-4824698#1 4824698#1 4824698#2 4824708 96136748#0 96136748#1 96136747#0 96136747#1 142517769#0"/>
    </vehicle>
    <vehicle id="moto25" type="motorcycle" depart="623.86" departLane="best">
        <route edges="153897364#7 153897364#8 314789414 66227390#0 66227390#2 4726268 450074239 4824557#0 4824557#1 148711386 209114498#0 209114498#1 142517768#0 142517768#1 142517768#3 142517768#4 142517768#6 142517768#7 142356191#2 142356191#3 142356191#4 149357425#0 149357439 -142519288#1 -142519288#0 -138419767#1 -138419767#0 138419767#0"/>
    </vehicle>
    <vehicle id="moto26" type="motorcycle" depart="648.82" departLane="best">
        <route edges="142356191#0 142356191#1 -142517768#7 -142517768#6 -142517768#5 -142517768#3 -142517768#2 -142517768#0 -4693898#3 -4693898#2 -4693898#1 -4693898#0 152445636#0 152445636#1 152445636#2 152445636#3 4726265 665610741 209114497 90697744 265499418 314789435#1 314789436#0 314789436#1 84657866#0 84657866#1 84657866#2 84657869#0"/>
    </vehicle>
    <vehicle id="moto27" type="motorcycle" depart="673.77" departLane="best">
        <route edges="4652507#3 450074243 90697744 265499418 314789435#1 84657864#0 84657864#1 84657864#2 314789430 84657872#0 84657872#1 152445636#0 152445636#1 152445636#2 152445636#3 4726265 665610741 209114497 4726269 450074238"/>
    </vehicle>
    <vehicle id="moto28" type="motorcycle" depart="698.72" departLane="best">
        <route edges="130764246#1 314789428#0 314789428#1 137275200#0 137275200#1 4824557#0 4824557#1 148711386 209114498#0 209114498#1 142517768#0 142517768#1 4824567#2 4824567#3"/>
    </vehicle>
    <vehicle id="moto29" type="motorcycle" depart="723.68" departLane="best">
        <route edges="130764244#0 130784151#1 130764246#0 130764246#1 314789428#0 314789428#1 137275200#0 137275200#1 4824557#0 4824557#1 148711386 209114498#0 209114498#1 -4693898#3 -4693898#2 -4693898#1 -4693898#0 152445636#0 152445636#1 152445636#2 152445636#3 4726265 665610741 450074244 209114514#0 209114514#1"/>
    </vehicle>
    <vehicle id="moto30" type="motorcycle" depart="748.63" departLane="best">
        <route edges="98428996#1 98428996#2 -371146256 371146256 84657867 314994947#0 314994947#1 142517770 27729257#0 27729257#1 314789430 84657872#0 84657872#1 4693898#0 4693898#1 4693898#2 4693898#3"/>
    </vehicle>
    <vehicle id="moto32" type="motorcycle" depart="798.54" departLane="best">
        <route edges="4828724#0 4828724#1 4828724#2 84657870#1 84657870#2 84657869#2 314789432 138347505#0 138347505#2 314789437#0 314789437#1 314789437#2 138347498 314789433#0 4824697#0 4824697#1 4824697#2 4824697#3 -4824702#2 -4824702#1 -4824702#0 4824702#0"/>
    </vehicle>
    <vehicle id="moto33" type="motorcycle" depart="823.50" departLane="best">
        <route edges="138347505#0 138347505#2 314789437#0 314789437#1 314789437#2 142517770 27729257#0 27729257#1 314789430 84657872#0 84657872#1 4693898#0 4693898#1 4693898#2 4693898#3 142517768#0 142517768#1 142517768#3 142517768#4 -142517768#5"/>
    </vehicle>
    <vehicle id="moto34" type="motorcycle" depart="848.45" departLane="best">
        <route edges="142517769#2 371146247 371146249 4218426#4 314789432 138347505#0 138347505#2 314789437#0 314789437#1 314789437#2 142517770 27729257#0 27729257#1 314789430 84657872#0 84657872#1 4693898#0 4693898#1 4693898#2 4693898#3 142517768#0 142517768#1 142517768#3 142517768#4 142517768#6"/>
    </vehicle>
    <vehicle id="moto35" type="motorcycle" depart="873.41" departLane="best">
        <route edges="138347489#1 138347489#2 138347489#3 138347489#4 138347489#5 138347489#6 4824703#1 4824703#2 4824703#5 4824702#1 4824702#2 4824695#1 4824708 96136748#0 96136748#1 96136747#0 96136747#1 371146256 84657867 314994947#0 314994947#1 142517770 27729257#0 27729257#1 314789430 84657872#0 -84657872#0 4828723#0 4828723#1 84657870#0 84657870#1 84657870#2 84657869#2"/>
    </vehicle>
    <vehicle id="moto39" type="motorcycle" depart="973.22" departLane="best">
        <route edges="142356191#0 142356191#1 -142517768#7 -142517768#6 -142517768#5 -142517768#3 -142517768#2 -142517768#0 142517766#0 142517766#1"/>
    </vehicle>
    <vehicle id="moto42" type="motorcycle" depart="1048.09" departLane="best">
        <route edges="209114514#1 209114514#2 209114514#3 439942512 335993897 265499402#0 265499402#1 265499402#2 265499402#3 265499402#4 138419768#0 138419768#1"/>
    </vehicle>
    <vehicle id="moto44" type="motorcycle" depart="1098.00" departLane="best">
        <route edges="-4824572 4824573#0 4824573#1 4824573#2 4824573#3 153897364#2 153897364#5 153897364#6 153897364#7 153897364#8 314789414 66227390#0 66227390#2 4726268 450074239 4824557#0 4824557#1 148711386 209114498#0 209114498#1 142517768#0 142517768#1 142517768#3 142517768#4 142517768#6 142517768#7 142356191#2 142356191#3 142356191#4 149357425#0 149357439 -142519288#1"/>
    </vehicle>
    <vehicle id="moto45" type="motorcycle" depart="1122.95" departLane="best">
        <route edges="-4824702#2 4824702#2 4824695#1 4824708 96136748#0 96136748#1 96136747#0 96136747#1 371146256 84657867 314994947#0 314994947#1 142517770 27729257#0 27729257#1 314789430 84657872#0 84657872#1 4693898#0 4693898#1 4693898#2 4693898#3 142517768#0 142517768#1 142517768#3 142517768#4 142517768#6 142517768#7 142356191#2 142356191#3 4221194#0 4221194#1 4221194#2 4221194#3 4824568#0 130784151#1 130764246#0 130764246#1 314789428#0 314789428#1 137275200#0 137275200#1 4652507#0 4652507#1 4652507#2"/>
    </vehicle>
    <vehicle id="moto46" type="motorcycle" depart="1147.90" departLane="best">
        <route edges="4824703#6 4824703#7 4824703#8 -4824698#1 -4824698#0 -4824704#2 -4824704#1 -4824704#0 4824702#0 4824702#1 4824702#2 132964155#0 132964155#1 314789433#4 66227388#0 66227388#1 27557419#0 27557419#1 27557419#2 27557419#3 90697745 335993897 265499402#0 265499402#1"/>
    </vehicle>
    <vehicle id="moto47" type="motorcycle" depart="1172.86" departLane="best">
        <route edges="-37035107#1 -37035107#0 -142517768#5 -142517768#3 -142517768#2 -142517768#0 -4693898#3 -4693898#2 -4693898#1 -4693898#0 152445636#0 152445636#1 152445636#2 152445636#3 4726265 665610741 450074244 209114514#0 209114514#1 209114514#2"/>
    </vehicle>
    <vehicle id="moto49" type="motorcycle" depart="1222.77" departLane="best">
        <route edges="90697744 265499418 314789435#1 314789436#0 314789436#1 84657866#0 84657866#1 84657866#2 84657865 98428996#0 98428996#1 98428996#2 -371146256 -4218501#1 -4218501#0 4828840#0 4828840#1 4828840#2 4828840#3"/>
    </vehicle>
    <vehicle id="moto50" type="motorcycle" depart="1247.72" departLane="best">
        <route edges="-138419767#1 -138419767#0 130547039 130547038 4756455#4 4760369#0 4221194#1 4221194#2 4221194#3 4824567#0 4824567#1"/>
    </vehicle>
    <vehicle id="moto51" type="motorcycle" depart="1272.68" departLane="best">
        <route edges="4756454#0 4756454#1 314789426#1 314789426#2 314789426#3 314789428#0 314789428#1 137275200#0 137275200#1 4824557#0 4824557#1 148711386 209114498#0 209114498#1 142517768#0 142517768#1 142517768#3 142517768#4 37035107#0"/>
    </vehicle>
    <vehicle id="moto52" type="motorcycle" depart="1297.63" departLane="best">
        <route edges="142356191#0 142356191#1 -142517768#7 -142517768#6 -142517768#5 -142517768#3 -142517768#2 -142517768#0 -4693898#3 -4693898#2 -4693898#1 -4693898#0 -84657872#1 84657872#1 4693898#0 4693898#1 4693898#2 4693898#3"/>
    </vehicle>
    <vehicle id="moto55" type="motorcycle" depart="1372.49" departLane="best">
        <route edges="4834297 -142517768#3 142517768#3"/>
    </vehicle>
    <vehicle id="moto56" type="motorcycle" depart="1397.45" departLane="best">
        <route edges="314789428#1 137275200#0 137275200#1 4652507#0 4652507#1 4652507#2 4652507#3 450074243 90697744 265499418 314789435#1 4877725 314789433#4 66227388#0 66227388#1 4726271#0 4726271#1 138347489#0 138347489#1 138347489#2 138347489#3 138347489#4"/>
    </vehicle>
    <vehicle id="moto57" type="motorcycle" depart="1422.40" departLane="best">
        <route edges="84657862#0 84657862#1 84657862#2 4828724#0 4828724#1 4828724#2 84657870#1 84657870#2 84657869#2 314789432 138347505#0 138347505#2 314789437#0 314789437#1 314789437#2 142517770 27729257#0 27729257#1 314789430 84657872#0 84657872#1 4693898#0 4693898#1 4693898#2 4693898#3 142517768#0 142517768#1 142517768#3 142517768#4 142517768#6 142517768#7 142356191#2 142356191#3 4221194#0 4221194#1 4221194#2 4834297"/>
    </vehicle>
    <vehicle id="moto58" type="motorcycle" depart="1447.36" departLane="best">
        <route edges="142517768#4 -142517768#5 -142517768#3 -142517768#2 -142517768#0 -4693898#3 -4693898#2 -4693898#1 -4693898#0 -84657872#1 84657872#1 4693898#0 4693898#1 4693898#2"/>
    </vehicle>
    <vehicle id="moto60" type="motorcycle" depart="1497.27" departLane="best">
        <route edges="4824697#2 4824697#3 4824695#1 4824708 96136748#0 96136748#1 96136747#0 96136747#1 371146256 84657867 314994947#0 314994947#1 142517770 27729257#0 27729257#1 314789430 84657872#0 84657872#1 4693898#0 4693898#1 4693898#2 4693898#3 142517768#0 142517768#1 142517768#3 142517768#4 37035107#0 37035107#1"/>
    </vehicle>
    <vehicle id="moto61" type="motorcycle" depart="1522.22" departLane="best">
        <route edges="4824702#1 4824702#2 4824695#1 4824708 96136748#0 96136748#1 96136747#0 96136747#1 371146256 84657867 314994947#0 314994947#1"/>
    </vehicle>
    <vehicle id="moto62" type="motorcycle" depart="1547.18" departLane="best">
        <route edges="-130547038 4756454#0 4756454#1 314789426#1 314789426#2 314789426#3 314789428#0 314789428#1 137275200#0 137275200#1 4652507#0 4652507#1 4652507#2 4652507#3 450074243 90697744 265499418 314789435#1 4877725 314789433#4 66227388#0 66227388#1 4726271#0 4726271#1 43324938#1 43324938#2 43324938#3 4824695#1 4824707 149539968"/>
    </vehicle>
    <vehicle id="moto64" type="motorcycle" depart="1597.08" departLane="best">
        <route edges="4877725 314789433#4 66227388#0 66227388#1 4726271#0 4726271#1 43324938#1 43324938#2 43324938#3 4824695#1 4824708 96136748#0 96136748#1 96136747#0 96136747#1 371146256 84657867 314994947#0 314994947#1 142517770 27729257#0 27729257#1 314789430 84657872#0 -84657872#0 4828723#0 4828723#1 4828723#2"/>
    </vehicle>
    <vehicle id="moto65" type="motorcycle" depart="1622.04" departLane="best">
        <route edges="142517768#8 142517768#10 -142517768#10 -142517768#9 -142517768#7 -142517768#6 -142517768#5 -142517768#3 -142517768#2 -142517768#0 -4693898#3 -4693898#2 -4693898#1 -4693898#0 -84657872#1 -84657872#0 4828723#0 4828723#1 4828723#2 4828723#3 84657865 98428996#0 98428996#1 98428996#2 -371146256 -4218501#1 -4218501#0"/>
    </vehicle>
    <vehicle id="moto66" type="motorcycle" depart="1646.99" departLane="best">
        <route edges="4877725 314789433#4 66227388#0 66227388#1 4726271#0 4726271#1 43324938#1 43324938#2 43324938#3 4824695#1 4824708 96136748#0 96136748#1 96136747#0 96136747#1 371146256 84657867 314994947#0 314994947#1 142517770 27729257#0 27729257#1 314789430 84657872#0 -84657872#0 4828723#0 4828723#1 84657870#0"/>
    </vehicle>
    <vehicle id="moto68" type="motorcycle" depart="1696.90" departLane="best">
        <route edges="-371146256 371146256 84657867 314994947#0 314994947#1 138347498 314789433#0 4824697#0 4824697#1 4824697#2"/>
    </vehicle>
    <vehicle id="moto69" type="motorcycle" depart="1721.86" departLane="best">
        <route edges="4824697#3 4824695#1 4824708 96136748#0 96136748#1 96136747#0 96136747#1 371146256 84657867 314994947#0 314994947#1 142517770 27729257#0 27729257#1 314789430 84657872#0 84657872#1 4693898#0 4693898#1 4693898#2 4693898#3 142517768#0 142517768#1 142517768#3 142517768#4 142517768#6 142517768#7 142356191#2 142356191#3 142356191#4 149357425#0 149357439 -142519288#1 -142519288#0 -138419767#1 -138419767#0 130547039 130547038"/>
    </vehicle>
    <vehicle id="moto71" type="motorcycle" depart="1771.77" departLane="best">
        <route edges="142356191#0 142356191#1 142356191#2 142356191#3 4221194#0 4221194#1 4221194#2 4834297"/>
    </vehicle>
    <vehicle id="moto72" type="motorcycle" depart="1796.72" departLane="best">
        <route edges="260923013#0 -260923013#0 4724425 149357425#0 149357439 -142519288#1 -142519288#0 -138419767#1 138419767#1"/>
    </vehicle>
    <vehicle id="moto73" type="motorcycle" depart="1821.67" departLane="best">
        <route edges="314994947#0 314994947#1 142517770 27729257#0 27729257#1 314789430 84657872#0 84657872#1 4693898#0 4693898#1 4693898#2 4693898#3 142517768#0 142517768#1 142517768#3 142517768#4 142517768#6 142517768#7 142356191#2 142356191#3 4221194#0 4221194#1 4221194#2 4221194#3 4824568#0"/>
    </vehicle>
    <vehicle id="moto77" type="motorcycle" depart="1921.49" departLane="best">
        <route edges="-4824704#3 4824698#0 4824698#1 4824698#2 4824708 96136748#0 96136748#1 96136747#0 96136747#1 371146256 84657867 314994947#0 314994947#1 142517770 27729257#0 27729257#1 314789430 84657872#0 84657872#1 4693898#0 4693898#1 4693898#2 4693898#3 142517768#0 142517768#1 142517768#3 142517768#4 142517768#6 142517768#7 142517768#8 142517768#10 -142356187#1 -142356187#0 -142356185#1 142356185#0"/>
    </vehicle>
    <vehicle id="moto78" type="motorcycle" depart="1946.45" departLane="best">
        <route edges="149539965#1 149539965#4 371146247 371146249 4218426#4 314789432 138347505#0 138347505#2 314789437#0 314789437#1 314789437#2 138347498 314789433#0 314789433#1 314789433#4 66227388#0 66227388#1 4726271#0 4726271#1 43324938#1 43324938#2"/>
    </vehicle>
    <vehicle id="moto80" type="motorcycle" depart="1996.36" departLane="best">
        <route edges="-371146256 371146256 84657867 314994947#0 314994947#1 142517770 27729257#0 27729257#1 314789430 84657872#0 84657872#1 4693898#0"/>
    </vehicle>
    <vehicle id="moto81" type="motorcycle" depart="2021.31" departLane="best">
        <route edges="138347505#0 138347505#2 314789437#0 314789437#1 314789437#2 142517770 27729257#0 27729257#1 314789430 84657872#0 -84657872#0 4828723#0 84657862#0"/>
    </vehicle>
    <vehicle id="moto82" type="motorcycle" depart="2046.26" departLane="best">
        <route edges="4828840#0 4828840#1 4828840#2 4828840#3 149539965#4 371146247 371146249 4218426#4 314789432 138347505#0 138347505#2 314789437#0 314789437#1 314789437#2 142517770 27729257#0 27729257#1 314789430 84657872#0 84657872#1 4693898#0 4693898#1 4693898#2 4693898#3 142517768#0 -142517768#0 -4693898#3"/>
    </vehicle>
    <vehicle id="moto83" type="motorcycle" depart="2071.22" departLane="best">
        <route edges="138347514#1 314789426#3 -130764246#1 -130764246#0 130764244#0 130764244#1 4756455#2 -130547038 4756454#0"/>
    </vehicle>
    <vehicle id="moto84" type="motorcycle" depart="2096.17" departLane="best">
        <route edges="138347489#2 138347489#3 138347489#4 138347489#5 138347489#6 4824703#1 4824703#2 4824703#5 4824702#1 4824702#2 4824695#1 4824708 96136748#0 96136748#1 96136747#0 96136747#1 371146256 84657867 314994947#0 314994947#1 142517770 27729257#0 27729257#1 314789430 84657872#0 84657872#1 4693898#0 4693898#1 4693898#2 4693898#3 142517768#0 142517768#1 142517768#3 142517768#4 142517768#6 142517768#7 142356191#2 142356191#3 142356191#4 149357425#0 149357439 -142519288#1 -142519288#0 -138419767#1 -138419767#0 130547039"/>
    </vehicle>
    <vehicle id="moto85" type="motorcycle" depart="2121.13" departLane="best">
        <route edges="84657866#1 84657866#2 84657869#0 84657869#1 84657869#2 314789432 138347505#0 138347505#2 314789437#0 314789437#1 314789437#2 142517770 27729257#0 27729257#1 314789430 84657872#0 84657872#1 4693898#0 4693898#1 4693898#2 4693898#3 142517768#0 142517768#1 142517768#3 142517768#4 142517768#6 142517768#7 142356191#2 142356191#3 4221194#0 4221194#1"/>
    </vehicle>
    <vehicle id="moto87" type="motorcycle" depart="2171.04" departLane="best">
        <route edges="4824704#3 -4824704#3 -4824704#2 -4824704#1 -4824704#0 4824702#0 4824702#1 4824702#2 132964155#0 132964155#1 314789433#4 66227388#0 66227388#1 4726271#0 4726271#1 138347489#0 138347489#1 138347489#2 138347489#3 138347489#4 138347489#5 138347489#6 138347489#9"/>
    </vehicle>
    <vehicle id="moto88" type="motorcycle" depart="2195.99" departLane="best">
        <route edges="-4824698#0 -4824704#2 -4824704#1 -4824704#0 4824702#0 4824702#1 4824702#2 132964155#0 132964155#1 314789433#4 66227388#0 66227388#1 27557419#0 27557419#1 27557419#2 27557419#3 90697745 335993897 265499402#0 265499402#1 265499402#2 265499402#3 265499402#4 265499402#5"/>
    </vehicle>
    <vehicle id="moto90" type="motorcycle" depart="2245.90" departLane="best">
        <route edges="4824568#2 138347514#0 138347514#1 314789426#3 -130764246#1 -130764246#0 130764244#0 130764244#1 4756455#2"/>
    </vehicle>
    <vehicle id="moto91" type="motorcycle" depart="2270.86" departLane="best">
        <route edges="96136748#1 96136747#0 96136747#1 371146256 84657867 314994947#0 314994947#1 138347498 314789433#0 4824697#0 4824697#1 4824697#2 4824697#3 -4824702#2 -4824702#1 -4824702#0 4824704#0 4824704#1 4824704#2 -4824704#2"/>
    </vehicle>
    <vehicle id="moto93" type="motorcycle" depart="2320.76" departLane="best">
        <route edges="4828840#0 4828840#1 4828840#2 4828840#3 149539965#4 371146247 371146249 4218426#4 314789432 138347505#0 138347505#2 314789437#0 314789437#1 314789437#2 142517770 27729257#0 27729257#1 314789430 84657872#0 84657872#1 4693898#0 4693898#1 4693898#2 4693898#3 142517766#0 142517766#1 142517766#2"/>
    </vehicle>
    <vehicle id="moto95" type="motorcycle" depart="2370.67" departLane="best">
        <route edges="260923013#0 -260923013#0 4760369#0 4221194#1 4221194#2 4221194#3 4221194#4 4221194#5 209114498#0 209114498#1 -4693898#3 -4693898#2 -4693898#1 -4693898#0 -84657872#1 -84657872#0 4828723#0 4828723#1 4828723#2 4828723#3 84657865 98428996#0 98428996#1 98428996#2 -371146256 142517769#0"/>
    </vehicle>
    <vehicle id="moto97" type="motorcycle" depart="2420.58" departLane="best">
        <route edges="265499406#0 265499406#1 439027698#0 439027698#1 314789427 314789426#0 314789426#1 314789426#2 314789426#3 314789428#0 314789428#1 137275200#0 137275200#1 4652507#0 4652507#1 4652507#2 4652507#3 450074243 90697744 265499418 314789435#1 314789436#0 314789436#1 84657866#0 84657866#1 84657866#2 84657865 98428996#0 98428996#1 98428996#2 -371146256 -4218501#1 -4218501#0 4828840#0 4828840#1 4828840#2 4828840#3"/>
    </vehicle>
    <vehicle id="moto98" type="motorcycle" depart="2445.54" departLane="best">
        <route edges="371146247 371146249 4218426#4 314789432 138347505#0 138347505#2 314789437#0 314789437#1 314789437#2 142517770 27729257#0 27729257#1 314789430 84657872#0 84657872#1 4693898#0 4693898#1 4693898#2 4693898#3 142517768#0 142517768#1 142517768#3 142517768#4 142517768#6 142517768#7 142356191#2 142356191#3 4221194#0 4221194#1 4756456 4756455#2 4756455#4 260923013#0 -260923013#0"/>
    </vehicle>
    <vehicle id="moto100" type="motorcycle" depart="2495.45" departLane="best">
        <route edges="88111450 130547039 4756454#0 4756454#1 314789426#1 314789426#2 314789426#3 314789428#0 314789428#1 137275200#0 137275200#1 4652507#0 4652507#1 4652507#2 4652507#3 450074243 90697744 265499418 314789435#1 314789436#0 314789436#1 84657866#0"/>
    </vehicle>
    <vehicle id="moto101" type="motorcycle" depart="2520.40" departLane="best">
        <route edges="4828726#0 4828726#1 4828724#0 4828724#1 4828724#2 84657870#1 84657870#2 84657869#2 314789432 138347505#0 138347505#2 314789437#0 314789437#1 314789437#2 138347498 314789433#0 314789433#1 314789433#4 66227388#0 66227388#1 4726271#0 4726271#1 138347489#0"/>
    </vehicle>
    <vehicle id="moto102" type="motorcycle" depart="2545.35" departLane="best">
        <route edges="314789426#1 314789426#2 314789426#3 314789428#0 314789428#1 137275200#0 137275200#1 4824557#0 4824557#1 148711386 209114498#0 209114498#1 142517768#0 142517768#1 142517768#3 142517768#4 142517768#6 142517768#7 142356191#2 142356191#3 142356191#4 149357425#0 149357439 -142519288#1 -142519288#0 -138419767#1 138419767#1"/>
    </vehicle>
    <vehicle id="moto104" type="motorcycle" depart="2595.26" departLane="best">
        <route edges="171934808#0 171934808#4 171934808#5 -84657872#1 -84657872#0 4828723#0 4828723#1 4828723#2 4828723#3 84657865 98428996#0 98428996#1"/>
    </vehicle>
    <vehicle id="moto105" type="motorcycle" depart="2620.22" departLane="best">
        <route edges="142356191#0 142356191#1 -142517768#7 -142517768#6 -142517768#5 -142517768#3 -142517768#2 -142517768#0 -4693898#3 -4693898#2 -4693898#1 -4693898#0 152445636#0 152445636#1 152445636#2 152445636#3 4726265 665610741 209114497 4726269 450074238 4726271#0 4726271#1 138347489#0 138347489#1 138347489#2 138347489#3 138347489#4 138347489#5 138347489#6 4824703#1"/>
    </vehicle>
    <vehicle id="moto106" type="motorcycle" depart="2645.17" departLane="best">
        <route edges="27557419#1 27557419#2 27557419#3 90697745 335993897 265499402#0 265499402#1 265499402#2"/>
    </vehicle>
    <vehicle id="moto107" type="motorcycle" depart="2670.13" departLane="best">