<?xml version="1.0" encoding="UTF-8"?>
<!-- generated on 2020-07-14 20:17:47.062828 by $Id$ via randomTrips.py
  options: 
-->
<routes xmlns:xsi="http://www.w3.org/2001/XMLSchema-instance" xsi:noNamespaceSchemaLocation="http://sumo.dlr.de/xsd/routes_file.xsd">
    <vType id="truck" speedFactor="normc(1.00,0.10,0.20,2.00)" vClass="truck">
    </vType>
    <trip id="truck0" depart="0.00" departLane="best" from="54170891#0" to="-4824704#3" type="truck"/>
    <trip id="truck1" depart="12.48" departLane="best" from="-142517768#10" to="138419768#1" type="truck"/>
    <trip id="truck2" depart="24.95" departLane="best" from="4824704#2" to="4760369#2" type="truck"/>
    <trip id="truck3" depart="37.43" departLane="best" from="84657869#2" to="150276881" type="truck"/>
    <trip id="truck4" depart="49.91" departLane="best" from="4824704#2" to="4824567#3" type="truck"/>
    <trip id="truck5" depart="62.39" departLane="best" from="-4824572" to="149357425#1" type="truck"/>
    <trip id="truck7" depart="87.34" departLane="best" from="138419767#1" to="84657869#0" type="truck"/>
    <trip id="truck8" depart="99.82" departLane="best" from="98428996#0" to="4723926" type="truck"/>
    <trip id="truck13" depart="162.20" departLane="best" from="-4824698#0" to="265499402#4" type="truck"/>
    <trip id="truck14" depart="174.68" departLane="best" from="265499406#0" to="84657872#0" type="truck"/>
    <trip id="truck15" depart="187.16" departLane="best" from="4824695#2" to="37035107#1" type="truck"/>
    <trip id="truck18" depart="224.59" departLane="best" from="-37035107#1" to="4824695#1" type="truck"/>
    <trip id="truck19" depart="237.07" departLane="best" from="138419767#0" to="4828841#1" type="truck"/>
    <trip id="truck21" depart="262.02" departLane="best" from="98428996#2" to="4723926" type="truck"/>
    <trip id="truck22" depart="274.50" departLane="best" from="260923013#0" to="314789438#0" type="truck"/>
    <trip id="truck23" depart="286.98" departLane="best" from="4828726#0" to="-4824698#1" type="truck"/>
    <trip id="truck24" depart="299.45" departLane="best" from="4824704#2" to="138419767#0" type="truck"/>
    <trip id="truck27" depart="336.89" departLane="best" from="153897364#2" to="98638605#2" type="truck"/>
    <trip id="truck28" depart="349.36" departLane="best" from="84657869#2" to="98638605#3" type="truck"/>
    <trip id="truck29" depart="361.84" departLane="best" from="314789426#0" to="4828726#2" type="truck"/>
    <trip id="truck30" depart="374.32" departLane="best" from="4218501#0" to="4756456" type="truck"/>
    <trip id="truck32" depart="399.27" departLane="best" from="138347489#2" to="259409010#1" type="truck"/>
    <trip id="truck33" depart="411.75" departLane="best" from="138419767#0" to="84657866#2" type="truck"/>
    <trip id="truck34" depart="424.23" departLane="best" from="4824712" to="4760369#4" type="truck"/>
    <trip id="truck35" depart="436.70" departLane="best" from="-4824704#4" to="130547039" type="truck"/>
    <trip id="truck36" depart="449.18" departLane="best" from="-4824572" to="371146249" type="truck"/>
    <trip id="truck37" depart="461.66" departLane="best" from="209114515#0" to="149357425#1" type="truck"/>
    <trip id="truck40" depart="499.09" departLane="best" from="4824707" to="4834297" type="truck"/>
    <trip id="truck41" depart="511.57" departLane="best" from="4824707" to="142519288#0" type="truck"/>
    <trip id="truck44" depart="549.00" departLane="best" from="84657870#2" to="149357425#1" type="truck"/>
    <trip id="truck45" depart="561.48" departLane="best" from="96136747#0" to="37035107#0" type="truck"/>
    <trip id="truck46" depart="573.95" departLane="best" from="-4824695#1" to="265499402#4" type="truck"/>
    <trip id="truck48" depart="598.91" departLane="best" from="152445636#3" to="-4824698#1" type="truck"/>
    <trip id="truck49" depart="611.38" departLane="best" from="142517768#10" to="4828724#2" type="truck"/>
    <trip id="truck50" depart="623.86" departLane="best" from="142517768#0" to="259409010#2" type="truck"/>
    <trip id="truck51" depart="636.34" departLane="best" from="-4824704#2" to="260923013#1" type="truck"/>
    <trip id="truck52" depart="648.82" departLane="best" from="314789428#1" to="-4218501#0" type="truck"/>
    <trip id="truck53" depart="661.29" departLane="best" from="265499406#0" to="4824703#8" type="truck"/>
    <trip id="truck54" depart="673.77" departLane="best" from="4693898#0" to="98638605#3" type="truck"/>
    <trip id="truck55" depart="686.25" departLane="best" from="4824712" to="37035107#1" type="truck"/>
    <trip id="truck56" depart="698.72" departLane="best" from="438898636" to="149357425#0" type="truck"/>
    <trip id="truck59" depart="736.16" departLane="best" from="4218426#1" to="4760369#1" type="truck"/>
    <trip id="truck60" depart="748.63" departLane="best" from="-142517768#10" to="4723926" type="truck"/>
    <trip id="truck63" depart="786.07" departLane="best" from="84657867" to="138419768#1" type="truck"/>
    <trip id="truck64" depart="798.54" departLane="best" from="-4824704#1" to="4756454#1" type="truck"/>
    <trip id="truck65" depart="811.02" departLane="best" from="371146256" to="142356191#4" type="truck"/>
    <trip id="truck69" depart="860.93" departLane="best" from="-4824702#2" to="98638605#0" type="truck"/>
    <trip id="truck70" depart="873.41" departLane="best" from="4828723#3" to="4824704#4" type="truck"/>
    <trip id="truck75" depart="935.79" departLane="best" from="-138419767#1" to="84657870#0" type="truck"/>
    <trip id="truck78" depart="973.22" departLane="best" from="4218426#0" to="314789426#3" type="truck"/>
    <trip id="truck79" depart="985.70" departLane="best" from="142356191#0" to="-96136747#0" type="truck"/>
    <trip id="truck80" depart="998.18" departLane="best" from="314789433#4" to="149357425#0" type="truck"/>
    <trip id="truck81" depart="1010.66" departLane="best" from="130764244#1" to="-4218501#0" type="truck"/>
    <trip id="truck83" depart="1035.61" departLane="best" from="4824710" to="259409010#2" type="truck"/>
    <trip id="truck84" depart="1048.09" departLane="best" from="142356191#0" to="130764246#1" type="truck"/>
    <trip id="truck86" depart="1073.04" departLane="best" from="4824712" to="4221194#2" type="truck"/>
    <trip id="truck87" depart="1085.52" departLane="best" from="84657869#0" to="98638605#3" type="truck"/>
    <trip id="truck90" depart="1122.95" departLane="best" from="149539965#0" to="150276881" type="truck"/>
    <trip id="truck91" depart="1135.43" departLane="best" from="142517769#1" to="4760369#0" type="truck"/>
    <trip id="truck92" depart="1147.90" departLane="best" from="142356191#0" to="84657869#3" type="truck"/>
    <trip id="truck93" depart="1160.38" departLane="best" from="265499406#0" to="149539968" type="truck"/>
    <trip id="truck94" depart="1172.86" departLane="best" from="142517768#7" to="96136747#1" type="truck"/>
    <trip id="truck95" depart="1185.34" departLane="best" from="4824695#1" to="142356185#0" type="truck"/>
    <trip id="truck96" depart="1197.81" departLane="best" from="4760371" to="314789437#0" type="truck"/>
    <trip id="truck97" depart="1210.29" departLane="best" from="96136747#0" to="142517768#10" type="truck"/>
    <trip id="truck99" depart="1235.25" departLane="best" from="314789426#2" to="4824704#4" type="truck"/>
    <trip id="truck101" depart="1260.20" departLane="best" from="4218501#0" to="98638605#3" type="truck"/>
    <trip id="truck103" depart="1285.15" departLane="best" from="265499406#0" to="149539968" type="truck"/>
    <trip id="truck104" depart="1297.63" departLane="best" from="4824698#1" to="-260923013#0" type="truck"/>
    <trip id="truck106" depart="1322.59" departLane="best" from="4652507#2" to="4824704#4" type="truck"/>
    <trip id="truck108" depart="1347.54" departLane="best" from="665610741" to="98638605#3" type="truck"/>
    <trip id="truck109" depart="1360.02" departLane="best" from="-142517768#9" to="4824703#6" type="truck"/>
    <trip id="truck110" depart="1372.49" departLane="best" from="142356191#0" to="209114514#1" type="truck"/>
    <trip id="truck111" depart="1384.97" departLane="best" from="130528361#0" to="-4824704#0" type="truck"/>
    <trip id="truck113" depart="1409.93" departLane="best" from="138347505#2" to="142517768#8" type="truck"/>
    <trip id="truck114" depart="1422.40" departLane="best" from="-138419767#1" to="4824704#0" type="truck"/>
    <trip id="truck116" depart="1447.36" departLane="best" from="149357439" to="43324938#2" type="truck"/>
    <trip id="truck117" depart="1459.84" departLane="best" from="4218426#0" to="4221194#2" type="truck"/>
    <trip id="truck118" depart="1472.31" departLane="best" from="142356191#0" to="4824703#7" type="truck"/>
    <trip id="truck119" depart="1484.79" departLane="best" from="-142517768#10" to="4877725" type="truck"/>
    <trip id="truck120" depart="1497.27" departLane="best" from="-4824704#4" to="84657870#0" type="truck"/>
    <trip id="truck121" depart="1509.74" departLane="best" from="-4824704#4" to="27729257#0" type="truck"/>
    <trip id="truck123" depart="1534.70" departLane="best" from="152445636#0" to="259409010#2" type="truck"/>
    <trip id="truck124" depart="1547.18" departLane="best" from="4218501#0" to="-142517768#0" type="truck"/>
    <trip id="truck125" depart="1559.65" departLane="best" from="4824703#1" to="142517768#10" type="truck"/>
    <trip id="truck126" depart="1572.13" departLane="best" from="4828726#1" to="150276881" type="truck"/>
    <trip id="truck129" depart="1609.56" departLane="best" from="27729257#0" to="259409010#2" type="truck"/>
    <trip id="truck130" depart="1622.04" departLane="best" from="438898636" to="37035107#1" type="truck"/>
    <trip id="truck131" depart="1634.52" departLane="best" from="4221194#1" to="-96136747#0" type="truck"/>
    <trip id="truck132" depart="1646.99" departLane="best" from="4756455#4" to="4828726#2" type="truck"/>
    <trip id="truck133" depart="1659.47" departLane="best" from="142519288#1" to="27729257#0" type="truck"/>
    <trip id="truck134" depart="1671.95" departLane="best" from="-4824572" to="4824567#3" type="truck"/>
    <trip id="truck135" depart="1684.43" departLane="best" from="149539965#4" to="4756454#0" type="truck"/>
    <trip id="truck136" depart="1696.90" departLane="best" from="4824573#0" to="4828841#1" type="truck"/>
    <trip id="truck137" depart="1709.38" departLane="best" from="4218426#0" to="142356191#2" type="truck"/>
    <trip id="truck138" depart="1721.86" departLane="best" from="4218426#0" to="4824704#1" type="truck"/>
    <trip id="truck139" depart="1734.33" departLane="best" from="138419767#1" to="138347505#2" type="truck"/>
    <trip id="truck140" depart="1746.81" departLane="best" from="4756456" to="149539965#4" type="truck"/>
    <trip id="truck141" depart="1759.29" departLane="best" from="438898636" to="-142517768#6" type="truck"/>
    <trip id="truck142" depart="1771.77" departLane="best" from="209114515#3" to="149357425#1" type="truck"/>
    <trip id="truck145" depart="1809.20" departLane="best" from="138347505#2" to="150276881" type="truck"/>
    <trip id="truck146" depart="1821.67" departLane="best" from="-37035107#1" to="4828840#2" type="truck"/>
    <trip id="truck147" depart="1834.15" departLane="best" from="4218426#0" to="4221194#1" type="truck"/>
    <trip id="truck148" depart="1846.63" departLane="best" from="142517768#8" to="4824703#8" type="truck"/>
    <trip id="truck149" depart="1859.11" departLane="best" from="4828723#1" to="142517768#10" type="truck"/>
    <trip id="truck150" depart="1871.58" departLane="best" from="4824567#1" to="4824704#4" type="truck"/>
    <trip id="truck151" depart="1884.06" departLane="best" from="-4824710" to="138419768#1" type="truck"/>
    <trip id="truck152" depart="1896.54" departLane="best" from="4221194#0" to="4824695#1" type="truck"/>
    <trip id="truck153" depart="1909.02" departLane="best" from="-37035107#1" to="4828840#3" type="truck"/>
    <trip id="truck154" depart="1921.49" departLane="best" from="4824704#3" to="4724425" type="truck"/>
    <trip id="truck155" depart="1933.97" departLane="best" from="142356191#0" to="259409010#2" type="truck"/>
    <trip id="truck156" depart="1946.45" departLane="best" from="171934808#0" to="439027697" type="truck"/>
    <trip id="truck157" depart="1958.92" departLane="best" from="4824708" to="4756455#2" type="truck"/>
    <trip id="truck158" depart="1971.40" departLane="best" from="4824712" to="4824567#3" type="truck"/>
    <trip id="truck160" depart="1996.36" departLane="best" from="4824704#3" to="314789426#1" type="truck"/>
    <trip id="truck161" depart="2008.83" departLane="best" from="4824712" to="209114498#0" type="truck"/>
    <trip id="truck162" depart="2021.31" departLane="best" from="84657866#2" to="98638605#0" type="truck"/>
    <trip id="truck163" depart="2033.79" departLane="best" from="84657870#2" to="4824704#4" type="truck"/>
    <trip id="truck164" depart="2046.26" departLane="best" from="138347498" to="4723926" type="truck"/>
    <trip id="truck165" depart="2058.74" departLane="best" from="4828724#0" to="149357425#1" type="truck"/>
    <trip id="truck166" depart="2071.22" departLane="best" from="138347489#1" to="98638605#3" type="truck"/>
    <trip id="truck167" depart="2083.70" departLane="best" from="153897364#0" to="-142517768#5" type="truck"/>
    <trip id="truck168" depart="2096.17" departLane="best" from="-4824704#4" to="149357425#1" type="truck"/>
    <trip id="truck169" depart="2108.65" departLane="best" from="4824712" to="4760369#1" type="truck"/>
    <trip id="truck170" depart="2121.13" departLane="best" from="-4824704#4" to="4760369#4" type="truck"/>
    <trip id="truck171" depart="2133.61" departLane="best" from="4824712" to="37035107#1" type="truck"/>
    <trip id="truck172" depart="2146.08" departLane="best" from="-4824698#0" to="149357425#1" type="truck"/>
    <trip id="truck173" depart="2158.56" departLane="best" from="142356191#4" to="-371146256" type="truck"/>
    <trip id="truck175" depart="2183.51" departLane="best" from="138347505#2" to="-142356187#0" type="truck"/>
    <trip id="truck176" depart="2195.99" departLane="best" from="142517769#2" to="-37035107#0" type="truck"/>
    <trip id="truck177" depart="2208.47" departLane="best" from="130528361#1" to="4824698#2" type="truck"/>
    <trip id="truck178" depart="2220.95" departLane="best" from="-260923013#1" to="4824698#1" type="truck"/>
    <trip id="truck180" depart="2245.90" departLane="best" from="314789428#0" to="98638605#3" type="truck"/>
    <trip id="truck181" depart="2258.38" departLane="best" from="314789437#0" to="142517768#7" type="truck"/>
    <trip id="truck182" depart="2270.86" departLane="best" from="4828726#0" to="150276881" type="truck"/>
    <trip id="truck183" depart="2283.33" departLane="best" from="-4824704#1" to="209114498#0" type="truck"/>
    <trip id="truck186" depart="2320.76" departLane="best" from="4824567#1" to="-4824704#0" type="truck"/>
    <trip id="truck187" depart="2333.24" departLane="best" from="4221194#0" to="4824704#4" type="truck"/>
    <trip id="truck189" depart="2358.20" departLane="best" from="149539965#1" to="-260923013#0" type="truck"/>
    <trip id="truck190" depart="2370.67" departLane="best" from="152445636#2" to="4824703#8" type="truck"/>
    <trip id="truck191" depart="2383.15" departLane="best" from="-4824704#4" to="450074238" type="truck"/>
    <trip id="truck192" depart="2395.63" departLane="best" from="4824702#0" to="-142517768#9" type="truck"/>
    <trip id="truck193" depart="2408.10" departLane="best" from="-37035107#0" to="4824698#2" type="truck"/>
    <trip id="truck194" depart="2420.58" departLane="best" from="171934808#0" to="4723926" type="truck"/>
    <trip id="truck196" depart="2445.54" departLane="best" from="142356191#0" to="84657864#0" type="truck"/>
    <trip id="truck199" depart="2482.97" departLane="best" from="-142517768#10" to="371146249" type="truck"/>
    <trip id="truck200" depart="2495.45" departLane="best" from="149357425#0" to="4828841#1" type="truck"/>
    <trip id="truck202" depart="2520.40" departLane="best" from="149357439" to="84657869#2" type="truck"/>
    <trip id="truck204" depart="2545.35" departLane="best" from="-96136748#1" to="150276881" type="truck"/>
    <trip id="truck205" depart="2557.83" departLane="best" from="84657870#2" to="142356191#3" type="truck"/>
    <trip id="truck207" depart="2582.79" departLane="best" from="152445636#3" to="259409010#2" type="truck"/>
    <trip id="truck209" depart="2607.74" departLane="best" from="-4824704#4" to="150276881" type="truck"/>
    <trip id="truck210" depart="2620.22" departLane="best" from="4221194#2" to="314789438#0" type="truck"/>
    <trip id="truck212" depart="2645.17" departLane="best" from="142519288#0" to="4824708" type="truck"/>
    <trip id="truck213" depart="2657.65" departLane="best" from="142356191#3" to="4824704#4" type="truck"/>
    <trip id="truck214" depart="2670.13" departLane="best" from="153897364#0" to="4756455#4" type="truck"/>
    <trip id="truck215" depart="2682.60" departLane="best" from="4824703#7" to="4824567#1" type="truck"/>
    <trip id="truck216" depart="2695.08" departLane="best" from="4218426#0" to="4824557#1" type="truck"/>
    <trip id="truck217" depart="2707.56" departLane="best" from="4218426#1" to="138347489#9" type="truck"/>
    <trip id="truck218" depart="2720.04" departLane="best" from="-142517768#0" to="149539968" type="truck"/>
    <trip id="truck220" depart="2744.99" departLane="best" from="-4824704#4" to="142356187#1" type="truck"/>
    <trip id="truck222" depart="2769.94" departLane="best" from="27729257#0" to="142356185#0" type="truck"/>
    <trip id="truck223" depart="2782.42" departLane="best" from="4760371" to="-96136747#0" type="truck"/>
    <trip id="truck225" depart="2807.38" departLane="best" from="4218426#0" to="37035107#0" type="truck"/>
    <trip id="truck226" depart="2819.85" departLane="best" from="66227390#2" to="98638605#3" type="truck"/>
    <trip id="truck227" depart="2832.33" departLane="best" from="-138419767#0" to="4218501#1" type="truck"/>
    <trip id="truck228" depart="2844.81" departLane="best" from="-4824572" to="98638605#0" type="truck"/>
    <trip id="truck229" depart="2857.28" departLane="best" from="265499406#0" to="142517769#0" type="truck"/>
    <trip id="truck230" depart="2869.76" departLane="best" from="-4218501#1" to="4756454#1" type="truck"/>
    <trip id="truck232" depart="2894.72" departLane="best" from="314789427" to="27729257#1" type="truck"/>
    <trip id="truck233" depart="2907.19" departLane="best" from="4824704#2" to="4824567#0" type="truck"/>
    <trip id="truck234" depart="2919.67" departLane="best" from="171934808#0" to="4824704#4" type="truck"/>
    <trip id="truck238" depart="2969.58" departLane="best" from="4824704#3" to="260923013#1" type="truck"/>
    <trip id="truck239" depart="2982.06" departLane="best" from="-4824572" to="-142517768#7" type="truck"/>
    <trip id="truck240" depart="2994.53" departLane="best" from="4218501#0" to="4760369#4" type="truck"/>
    <trip id="truck242" depart="3019.49" departLane="best" from="142356191#0" to="4824704#4" type="truck"/>
    <trip id="truck243" depart="3031.97" departLane="best" from="4824568#0" to="149539968" type="truck"/>
    <trip id="truck244" depart="3044.44" departLane="best" from="4218501#0" to="4756455#4" type="truck"/>
    <trip id="truck248" depart="3094.35" departLane="best" from="4824704#2" to="84657862#2" type="truck"/>
    <trip id="truck249" depart="3106.83" departLane="best" from="138347489#4" to="142356185#0" type="truck"/>
    <trip id="truck250" depart="3119.31" departLane="best" from="4221194#0" to="4828841#1" type="truck"/>
    <trip id="truck253" depart="3156.74" departLane="best" from="314789427" to="314789433#1" type="truck"/>
    <trip id="truck254" depart="3169.22" departLane="best" from="4218426#0" to="260923013#1" type="truck"/>
    <trip id="truck255" depart="3181.69" departLane="best" from="439027698#1" to="314789432" type="truck"/>
    <trip id="truck256" depart="3194.17" departLane="best" from="130528361#0" to="4824703#5" type="truck"/>
    <trip id="truck261" depart="3256.56" departLane="best" from="4693898#3" to="4824704#1" type="truck"/>
    <trip id="truck262" depart="3269.03" departLane="best" from="130784151#0" to="314789438#0" type="truck"/>
    <trip id="truck263" depart="3281.51" departLane="best" from="4824710" to="142519288#0" type="truck"/>
    <trip id="truck265" depart="3306.46" departLane="best" from="-4824704#4" to="98638605#3" type="truck"/>
    <trip id="truck266" depart="3318.94" departLane="best" from="84657869#1" to="259409010#2" type="truck"/>
    <trip id="truck267" depart="3331.42" departLane="best" from="4824698#0" to="-142517768#6" type="truck"/>
    <trip id="truck270" depart="3368.85" departLane="best" from="4824703#7" to="4760369#4" type="truck"/>
    <trip id="truck272" depart="3393.81" departLane="best" from="335993897" to="259409010#2" type="truck"/>
    <trip id="truck275" depart="3431.24" departLane="best" from="4218426#0" to="138347489#9" type="truck"/>
    <trip id="truck276" depart="3443.71" departLane="best" from="142356191#4" to="314789433#0" type="truck"/>
    <trip id="truck277" depart="3456.19" departLane="best" from="4218501#0" to="138419768#0" type="truck"/>
    <trip id="truck279" depart="3481.15" departLane="best" from="84657867" to="150276881" type="truck"/>
    <trip id="truck280" depart="3493.62" departLane="best" from="142517769#1" to="150276881" type="truck"/>
    <trip id="truck282" depart="3518.58" departLane="best" from="4824710" to="259409010#0" type="truck"/>
    <trip id="truck283" depart="3531.05" departLane="best" from="4218501#0" to="37035107#1" type="truck"/>
    <trip id="truck285" depart="3556.01" departLane="best" from="438898636" to="142517768#10" type="truck"/>
    <trip id="truck288" depart="3593.44" departLane="best" from="-138419767#1" to="142517769#1" type="truck"/>
</routes>
