<?xml version="1.0" encoding="UTF-8"?>
<!-- generated on 2020-07-14 20:17:48.397324 by $Id$
  options: 
-->
<routes xmlns:xsi="http://www.w3.org/2001/XMLSchema-instance" xsi:noNamespaceSchemaLocation="http://sumo.dlr.de/xsd/routes_file.xsd">
    <vType id="pedestrian" vClass="pedestrian" speedDev="0.1"/>
    <person id="ped0" depart="0.00">
        <walk from="4824557#1" to="-142517768#2"/>
    </person>
    <person id="ped1" depart="7.64">
        <walk from="149540138#1" to="142356187#1"/>
    </person>
    <person id="ped2" depart="15.27">
        <walk from="537946540#3" to="4824698#0"/>
    </person>
    <person id="ped3" depart="22.91">
        <walk from="682283986" to="-773759798"/>
    </person>
    <person id="ped4" depart="30.55">
        <walk from="314789426#1" to="-142517768#6"/>
    </person>
    <person id="ped5" depart="38.19">
        <walk from="140772448#4" to="4218501#1"/>
    </person>
    <person id="ped6" depart="45.82">
        <walk from="-142517768#3" to="140772396#10"/>
    </person>
    <person id="ped7" depart="53.46">
        <walk from="4824570#1" to="45586343#3"/>
    </person>
    <person id="ped8" depart="61.10">
        <walk from="142356185#0" to="45639063"/>
    </person>
    <person id="ped9" depart="68.74">
        <walk from="545234071" to="-138419767#1"/>
    </person>
    <person id="ped10" depart="76.37">
        <walk from="545234067" to="4824704#4"/>
    </person>
    <person id="ped11" depart="84.01">
        <walk from="209114520#1" to="138347529#0"/>
    </person>
    <person id="ped12" depart="91.65">
        <walk from="84657863#4" to="209114519#1"/>
    </person>
    <person id="ped13" depart="99.29">
        <walk from="-96136747#1" to="130528361#0"/>
    </person>
    <person id="ped14" depart="106.92">
        <walk from="59851521#5" to="4652507#3"/>
    </person>
    <person id="ped15" depart="114.56">
        <walk from="545234068" to="4877725"/>
    </person>
    <person id="ped16" depart="122.20">
        <walk from="454115422#3" to="84657869#2"/>
    </person>
    <person id="ped17" depart="129.84">
        <walk from="209114527#7" to="45586345#0"/>
    </person>
    <person id="ped18" depart="137.47">
        <walk from="59851521#14" to="4726271#0"/>
    </person>
    <person id="ped19" depart="145.11">
        <walk from="59869096#1" to="45586358"/>
    </person>
    <person id="ped20" depart="152.75">
        <walk from="4824712" to="-37035107#1"/>
    </person>
    <person id="ped21" depart="160.39">
        <walk from="142356191#2" to="150077812#2"/>
    </person>
    <person id="ped22" depart="168.02">
        <walk from="-682283993#1" to="142517766#1"/>
    </person>
    <person id="ped23" depart="175.66">
        <walk from="130547039" to="149540140#2"/>
    </person>
    <person id="ped24" depart="183.30">
        <walk from="4760369#4" to="209114527#11"/>
    </person>
    <person id="ped25" depart="190.94">
        <walk from="209114527#15" to="140772404"/>
    </person>
    <person id="ped26" depart="198.57">
        <walk from="149540137#0" to="731731245"/>
    </person>
    <person id="ped27" depart="206.21">
        <walk from="4824570#0" to="4693898#3"/>
    </person>
    <person id="ped28" depart="213.85">
        <walk from="138419772#1" to="4877725"/>
    </person>
    <person id="ped29" depart="221.49">
        <walk from="138419767#0" to="209114527#8"/>
    </person>
    <person id="ped30" depart="229.12">
        <walk from="96136747#1" to="4824557#1"/>
    </person>
    <person id="ped31" depart="236.76">
        <walk from="45586347#0" to="4824703#1"/>
    </person>
    <person id="ped32" depart="244.40">
        <walk from="59851521#23" to="537957150#0"/>
    </person>
    <person id="ped33" depart="252.03">
        <walk from="142356191#3" to="-142517768#9"/>
    </person>
    <person id="ped34" depart="259.67">
        <walk from="193863653" to="149540137#1"/>
    </person>
    <person id="ped35" depart="267.31">
        <walk from="140772410" to="81532718#2"/>
    </person>
    <person id="ped36" depart="274.95">
        <walk from="671832297#1" to="193863653"/>
    </person>
    <person id="ped37" depart="282.58">
        <walk from="4824571#3" to="265499402#1"/>
    </person>
    <person id="ped38" depart="290.22">
        <walk from="682284000" to="371146261#0"/>
    </person>
    <person id="ped39" depart="297.86">
        <walk from="149540118" to="142517769#1"/>
    </person>
    <person id="ped40" depart="305.50">
        <walk from="45586347#3" to="149539965#4"/>
    </person>
    <person id="ped41" depart="313.13">
        <walk from="45639060" to="682283992"/>
    </person>
    <person id="ped42" depart="320.77">
        <walk from="265499402#4" to="140772448#5"/>
    </person>
    <person id="ped43" depart="328.41">
        <walk from="98638605#2" to="4221194#2"/>
    </person>
    <person id="ped44" depart="336.05">
        <walk from="-84657872#1" to="-371146256"/>
    </person>
    <person id="ped45" depart="343.68">
        <walk from="130764248#3" to="4756457#0"/>
    </person>
    <person id="ped46" depart="351.32">
        <walk from="538970943#0" to="314789426#1"/>
    </person>
    <person id="ped47" depart="358.96">
        <walk from="-4824702#0" to="209114527#9"/>
    </person>
    <person id="ped48" depart="366.60">
        <walk from="98638605#0" to="450074239"/>
    </person>
    <person id="ped49" depart="374.23">
        <walk from="84657869#0" to="59869096#1"/>
    </person>
    <person id="ped50" depart="381.87">
        <walk from="-140772396#4" to="4828840#1"/>
    </person>
    <person id="ped51" depart="389.51">
        <walk from="4824702#0" to="454115422#3"/>
    </person>
    <person id="ped52" depart="397.15">
        <walk from="149540137#0" to="4824567#0"/>
    </person>
    <person id="ped53" depart="404.78">
        <walk from="130764248#4" to="314789433#0"/>
    </person>
    <person id="ped54" depart="412.42">
        <walk from="371146247" to="84657863#1"/>
    </person>
    <person id="ped55" depart="420.06">
        <walk from="671832297#0" to="149539968"/>
    </person>
    <person id="ped56" depart="427.70">
        <walk from="4218426#0" to="138419778#4"/>
    </person>
    <person id="ped57" depart="435.33">
        <walk from="682283998" to="66227390#0"/>
    </person>
    <person id="ped58" depart="442.97">
        <walk from="153897364#2" to="4824557#1"/>
    </person>
    <person id="ped59" depart="450.61">
        <walk from="4693898#3" to="138347518"/>
    </person>
    <person id="ped60" depart="458.25">
        <walk from="537946552#4" to="454115422#5"/>
    </person>
    <person id="ped61" depart="465.88">
        <walk from="537957150#2" to="450074243"/>
    </person>
    <person id="ped62" depart="473.52">
        <walk from="-130547038" to="209114514#0"/>
    </person>
    <person id="ped63" depart="481.16">
        <walk from="-142356185#1" to="687042986"/>
    </person>
    <person id="ped64" depart="488.79">
        <walk from="682283961" to="59851521#15"/>
    </person>
    <person id="ped65" depart="496.43">
        <walk from="171934808#4" to="-4824572"/>
    </person>
    <person id="ped66" depart="504.07">
        <walk from="682283961" to="820142543#1"/>
    </person>
    <person id="ped67" depart="511.71">
        <walk from="-682284020" to="389302382#0"/>
    </person>
    <person id="ped68" depart="519.34">
        <walk from="-4824704#2" to="537946552#3"/>
    </person>
    <person id="ped69" depart="526.98">
        <walk from="537946552#7" to="131333220#3"/>
    </person>
    <person id="ped70" depart="534.62">
        <walk from="371146261#6" to="45586344#3"/>
    </person>
    <person id="ped71" depart="542.26">
        <walk from="149540118" to="665610740"/>
    </person>
    <person id="ped72" depart="549.89">
        <walk from="314789426#2" to="140772426"/>
    </person>
    <person id="ped73" depart="557.53">
        <walk from="454115422#5" to="4877725"/>
    </person>
    <person id="ped74" depart="565.17">
        <walk from="140772396#4" to="177044948"/>
    </person>
    <person id="ped75" depart="572.81">
        <walk from="98428996#2" to="4824570#1"/>
    </person>
    <person id="ped76" depart="580.44">
        <walk from="314789435#1" to="43324938#3"/>
    </person>
    <person id="ped77" depart="588.08">
        <walk from="130876649#1" to="142356191#0"/>
    </person>
    <person id="ped78" depart="595.72">
        <walk from="209114520#0" to="45639063"/>
    </person>
    <person id="ped79" depart="603.36">
        <walk from="142356191#4" to="140772448#5"/>
    </person>
    <person id="ped80" depart="610.99">
        <walk from="-4824704#3" to="4760369#1"/>
    </person>
    <person id="ped81" depart="618.63">
        <walk from="142356191#3" to="682283994#0"/>
    </person>
    <person id="ped82" depart="626.27">
        <walk from="59869096#0" to="-4824704#3"/>
    </person>
    <person id="ped83" depart="633.91">
        <walk from="142517768#10" to="4824695#1"/>
    </person>
    <person id="ped84" depart="641.54">
        <walk from="140772448#1" to="132964155#1"/>
    </person>
    <person id="ped85" depart="649.18">
        <walk from="728109156" to="45586354"/>
    </person>
    <person id="ped86" depart="656.82">
        <walk from="371146261#4" to="538967641"/>
    </person>
    <person id="ped87" depart="664.46">
        <walk from="545234068" to="138478958#4"/>
    </person>
    <person id="ped88" depart="672.09">
        <walk from="130528361#0" to="314789429#1"/>
    </person>
    <person id="ped89" depart="679.73">
        <walk from="314789426#2" to="371146261#15"/>
    </person>
    <person id="ped90" depart="687.37">
        <walk from="4877725" to="4824697#1"/>
    </person>
    <person id="ped91" depart="695.01">
        <walk from="90697744" to="130528361#1"/>
    </person>
    <person id="ped92" depart="702.64">
        <walk from="265499406#0" to="209114520#1"/>
    </person>
    <person id="ped93" depart="710.28">
        <walk from="59869096#1" to="142517769#2"/>
    </person>
    <person id="ped94" depart="717.92">
        <walk from="138478958#3" to="314994947#1"/>
    </person>
    <person id="ped95" depart="725.55">
        <walk from="314789426#1" to="149540140#2"/>
    </person>
    <person id="ped96" depart="733.19">
        <walk from="142517770" to="682284020"/>
    </person>
    <person id="ped97" depart="740.83">
        <walk from="314789437#0" to="59869096#1"/>
    </person>
    <person id="ped98" depart="748.47">
        <walk from="45586344#4" to="-4218501#0"/>
    </person>
    <person id="ped99" depart="756.10">
        <walk from="98638605#3" to="59851521#19"/>
    </person>
    <person id="ped100" depart="763.74">
        <walk from="84657867" to="682287576"/>
    </person>
    <person id="ped101" depart="771.38">
        <walk from="59851521#5" to="138419768#0"/>
    </person>
    <person id="ped102" depart="779.02">
        <walk from="389302382#0" to="140772448#0"/>
    </person>
    <person id="ped103" depart="786.65">
        <walk from="265499402#5" to="-4824572"/>
    </person>
    <person id="ped104" depart="794.29">
        <walk from="209114527#7" to="90697745"/>
    </person>
    <person id="ped105" depart="801.93">
        <walk from="149540118" to="538967641"/>
    </person>
    <person id="ped106" depart="809.57">
        <walk from="371146247" to="314789426#2"/>
    </person>
    <person id="ped107" depart="817.20">
        <walk from="84657863#4" to="98428996#2"/>
    </person>
    <person id="ped108" depart="824.84">
        <walk from="45586346#1" to="4828840#0"/>
    </person>
    <person id="ped109" depart="832.48">
        <walk from="138347528" to="153897364#0"/>
    </person>
    <person id="ped110" depart="840.12">
        <walk from="84657867" to="45639055#1"/>
    </person>
    <person id="ped111" depart="847.75">
        <walk from="45586343#1" to="537946552#12"/>
    </person>
    <person id="ped112" depart="855.39">
        <walk from="-4693898#3" to="45639060"/>
    </person>
    <person id="ped113" depart="863.03">
        <walk from="4218426#4" to="59851521#9"/>
    </person>
    <person id="ped114" depart="870.67">
        <walk from="138347529#1" to="84657864#0"/>
    </person>
    <person id="ped115" depart="878.30">
        <walk from="-682283993#1" to="138478958#0"/>
    </person>
    <person id="ped116" depart="885.94">
        <walk from="45639070#0" to="4824697#2"/>
    </person>
    <person id="ped117" depart="893.58">
        <walk from="142517768#0" to="130876649#0"/>
    </person>
    <person id="ped118" depart="901.22">
        <walk from="682283984#0" to="142517769#0"/>
    </person>
    <person id="ped119" depart="908.85">
        <walk from="45639068" to="4726271#1"/>
    </person>
    <person id="ped120" depart="916.49">
        <walk from="314789414" to="45639058"/>
    </person>
    <person id="ped121" depart="924.13">
        <walk from="439027698#0" to="728109155#1"/>
    </person>
    <person id="ped122" depart="931.76">
        <walk from="140772396#6" to="4828726#1"/>
    </person>
    <person id="ped123" depart="939.40">
        <walk from="142517768#3" to="265499402#1"/>
    </person>
    <person id="ped124" depart="947.04">
        <walk from="4824697#0" to="153897364#6"/>
    </person>
    <person id="ped125" depart="954.68">
        <walk from="193863654" to="537946552#15"/>
    </person>
    <person id="ped126" depart="962.31">
        <walk from="-4824704#4" to="371146261#0"/>
    </person>
    <person id="ped127" depart="969.95">
        <walk from="98638605#2" to="98638605#0"/>
    </person>
    <person id="ped128" depart="977.59">
        <walk from="-4824707" to="140772448#0"/>
    </person>
    <person id="ped129" depart="985.23">
        <walk from="149540118" to="728109155#0"/>
    </person>
    <person id="ped130" depart="992.86">
        <walk from="682283962#1" to="682283962#0"/>
    </person>
    <person id="ped131" depart="1000.50">
        <walk from="209114527#15" to="138347529#1"/>
    </person>
    <person id="ped132" depart="1008.14">
        <walk from="59851521#17" to="4824711"/>
    </person>
    <person id="ped133" depart="1015.78">
        <walk from="4723926" to="96136747#0"/>
    </person>
    <person id="ped134" depart="1023.41">
        <walk from="4824571#2" to="-140772396#2"/>
    </person>
    <person id="ped135" depart="1031.05">
        <walk from="545234073#6" to="153897364#5"/>
    </person>
    <person id="ped136" depart="1038.69">
        <walk from="4824572" to="815241742"/>
    </person>
    <person id="ped137" depart="1046.33">
        <walk from="137275200#1" to="130764248#7"/>
    </person>
    <person id="ped138" depart="1053.96">
        <walk from="130764248#1" to="45586345#1"/>
    </person>
    <person id="ped139" depart="1061.60">
        <walk from="149540137#4" to="4652507#3"/>
    </person>
    <person id="ped140" depart="1069.24">
        <walk from="4828726#2" to="140772396#6"/>
    </person>
    <person id="ped141" depart="1076.88">
        <walk from="4760369#3" to="149539968"/>
    </person>
    <person id="ped142" depart="1084.51">
        <walk from="389302382#2" to="682283994#0"/>
    </person>
    <person id="ped143" depart="1092.15">
        <walk from="59851521#3" to="-96136747#0"/>
    </person>
    <person id="ped144" depart="1099.79">
        <walk from="314789426#2" to="149540140#1"/>
    </person>
    <person id="ped145" depart="1107.43">
        <walk from="-130764246#1" to="537957146"/>
    </person>
    <person id="ped146" depart="1115.06">
        <walk from="4760371" to="149539965#1"/>
    </person>
    <person id="ped147" depart="1122.70">
        <walk from="537946547" to="45586345#0"/>
    </person>
    <person id="ped148" depart="1130.34">
        <walk from="314789428#1" to="-140772396#3"/>
    </person>
    <person id="ped149" depart="1137.98">
        <walk from="-4824710" to="682283962#3"/>
    </person>
    <person id="ped150" depart="1145.61">
        <walk from="682283993#4" to="45586344#0"/>
    </person>
    <person id="ped151" depart="1153.25">
        <walk from="59851521#18" to="45639055#3"/>
    </person>
    <person id="ped152" depart="1160.89">
        <walk from="138347505#0" to="131333220#2"/>
    </person>
    <person id="ped153" depart="1168.52">
        <walk from="171934808#5" to="682283993#0"/>
    </person>
    <person id="ped154" depart="1176.16">
        <walk from="54170891#1" to="59869096#1"/>
    </person>
    <person id="ped155" depart="1183.80">
        <walk from="682283993#0" to="140772410"/>
    </person>
    <person id="ped156" depart="1191.44">
        <walk from="142517770" to="130764244#0"/>
    </person>
    <person id="ped157" depart="1199.07">
        <walk from="537957150#3" to="682283964"/>
    </person>
    <person id="ped158" depart="1206.71">
        <walk from="26838607" to="4756454#0"/>
    </person>
    <person id="ped159" depart="1214.35">
        <walk from="138347528" to="728109153"/>
    </person>
    <person id="ped160" depart="1221.99">
        <walk from="627278687" to="84657870#0"/>
    </person>
    <person id="ped161" depart="1229.62">
        <walk from="545234073#1" to="682283962#2"/>
    </person>
    <person id="ped162" depart="1237.26">
        <walk from="-142517768#2" to="537946540#3"/>
    </person>
    <person id="ped163" depart="1244.90">
        <walk from="209114515#2" to="728109153"/>
    </person>
    <person id="ped164" depart="1252.54">
        <walk from="545234061" to="59869096#3"/>
    </person>
    <person id="ped165" depart="1260.17">
        <walk from="545234073#1" to="149540137#0"/>
    </person>
    <person id="ped166" depart="1267.81">
        <walk from="538967642#1" to="130764248#1"/>
    </person>
    <person id="ped167" depart="1275.45">
        <walk from="66227390#2" to="59851743#3"/>
    </person>
    <person id="ped168" depart="1283.09">
        <walk from="142356187#0" to="545234073#6"/>
    </person>
    <person id="ped169" depart="1290.72">
        <walk from="371146261#10" to="171934808#0"/>
    </person>
    <person id="ped170" depart="1298.36">
        <walk from="54170891#1" to="142356191#2"/>
    </person>
    <person id="ped171" depart="1306.00">
        <walk from="-142517768#10" to="140154650#0"/>
    </person>
    <person id="ped172" depart="1313.64">
        <walk from="209114514#3" to="59869096#3"/>
    </person>
    <person id="ped173" depart="1321.27">
        <walk from="84657866#1" to="149540140#3"/>
    </person>
    <person id="ped174" depart="1328.91">
        <walk from="4824567#1" to="265499402#4"/>
    </person>
    <person id="ped175" depart="1336.55">
        <walk from="84657872#1" to="454115422#3"/>
    </person>
    <person id="ped176" depart="1344.19">
        <walk from="815241742" to="130764248#7"/>
    </person>
    <person id="ped177" depart="1351.82">
        <walk from="84657869#0" to="138419778#2"/>
    </person>
    <person id="ped178" depart="1359.46">
        <walk from="84657864#2" to="149540118"/>
    </person>
    <person id="ped179" depart="1367.10">
        <walk from="130764248#2" to="314789433#0"/>
    </person>
    <person id="ped180" depart="1374.74">
        <walk from="4836593" to="193863652"/>
    </person>
    <person id="ped181" depart="1382.37">
        <walk from="4693898#0" to="4221194#4"/>
    </person>
    <person id="ped182" depart="1390.01">
        <walk from="211674510" to="45586358"/>
    </person>
    <person id="ped183" depart="1397.65">
        <walk from="149357425#0" to="4828723#2"/>
    </person>
    <person id="ped184" depart="1405.28">
        <walk from="-130764246#0" to="682287255"/>
    </person>
    <person id="ped185" depart="1412.92">
        <walk from="454115422#4" to="4828840#0"/>
    </person>
    <person id="ped186" depart="1420.56">
        <walk from="537946552#0" to="4824695#2"/>
    </person>
    <person id="ped187" depart="1428.20">
        <walk from="209114527#11" to="-4824704#2"/>
    </person>
    <person id="ped188" depart="1435.83">
        <walk from="4824573#0" to="209114515#1"/>
    </person>
    <person id="ped189" depart="1443.47">
        <walk from="193863652" to="59851521#5"/>
    </person>
    <person id="ped190" depart="1451.11">
        <walk from="4828840#1" to="153897364#6"/>
    </person>
    <person id="ped191" depart="1458.75">
        <walk from="177044946" to="27557419#1"/>
    </person>
    <person id="ped192" depart="1466.38">
        <walk from="265499406#0" to="152445636#3"/>
    </person>
    <person id="ped193" depart="1474.02">
        <walk from="131333220#2" to="314789426#0"/>
    </person>
    <person id="ped194" depart="1481.66">
        <walk from="81532718#0" to="4824698#0"/>
    </person>
    <person id="ped195" depart="1489.30">
        <walk from="682283993#3" to="4726268"/>
    </person>
    <person id="ped196" depart="1496.93">
        <walk from="153897364#6" to="45586344#2"/>
    </person>
    <person id="ped197" depart="1504.57">
        <walk from="-130547038" to="150077812#1"/>
    </person>
    <person id="ped198" depart="1512.21">
        <walk from="314789429#0" to="45639055#1"/>
    </person>
    <person id="ped199" depart="1519.85">
        <walk from="4824571#3" to="371146261#13"/>
    </person>
    <person id="ped200" depart="1527.48">
        <walk from="314789437#0" to="140772448#0"/>
    </person>
    <person id="ped201" depart="1535.12">
        <walk from="371146261#4" to="682283993#2"/>
    </person>
    <person id="ped202" depart="1542.76">
        <walk from="54170891#1" to="138419772#0"/>
    </person>
    <person id="ped203" depart="1550.40">
        <walk from="-682284020" to="43324938#2"/>
    </person>
    <person id="ped204" depart="1558.03">
        <walk from="4760369#2" to="209114519#0"/>
    </person>
    <person id="ped205" depart="1565.67">
        <walk from="545234073#7" to="537946552#15"/>
    </person>
    <person id="ped206" depart="1573.31">
        <walk from="4824697#1" to="142356191#0"/>
    </person>
    <person id="ped207" depart="1580.95">
        <walk from="140772396#10" to="-142517768#10"/>
    </person>
    <person id="ped208" depart="1588.58">
        <walk from="142517768#8" to="371146261#6"/>
    </person>
    <person id="ped209" depart="1596.22">
        <walk from="59851521#6" to="-4824704#4"/>
    </person>
    <person id="ped210" depart="1603.86">
        <walk from="27729257#1" to="4760369#0"/>
    </person>
    <person id="ped211" depart="1611.50">
        <walk from="140154650#1" to="4824704#3"/>
    </person>
    <person id="ped212" depart="1619.13">
        <walk from="397694469#0" to="142517768#8"/>
    </person>
    <person id="ped213" depart="1626.77">
        <walk from="4824571#4" to="-138419767#1"/>
    </person>
    <person id="ped214" depart="1634.41">
        <walk from="537946552#14" to="537957144"/>
    </person>
    <person id="ped215" depart="1642.04">
        <walk from="130764246#1" to="314789427"/>
    </person>
    <person id="ped216" depart="1649.68">
        <walk from="138419778#0" to="84657863#4"/>
    </person>
    <person id="ped217" depart="1657.32">
        <walk from="438648464" to="-4218501#0"/>
    </person>
    <person id="ped218" depart="1664.96">
        <walk from="142517770" to="59851521#5"/>
    </person>
    <person id="ped219" depart="1672.59">
        <walk from="371146256" to="545234058"/>
    </person>
    <person id="ped220" depart="1680.23">
        <walk from="4824573#3" to="96136747#0"/>
    </person>
    <person id="ped221" depart="1687.87">
        <walk from="45639070#0" to="84657862#1"/>
    </person>
    <person id="ped222" depart="1695.51">
        <walk from="682283984#1" to="4723926"/>
    </person>
    <person id="ped223" depart="1703.14">
        <walk from="4828840#0" to="4218501#1"/>
    </person>
    <person id="ped224" depart="1710.78">
        <walk from="59851521#15" to="45586344#2"/>
    </person>
    <person id="ped225" depart="1718.42">
        <walk from="682283992" to="537946552#1"/>
    </person>
    <person id="ped226" depart="1726.06">
        <walk from="371146261#6" to="149539964"/>
    </person>
    <person id="ped227" depart="1733.69">
        <walk from="142517769#1" to="4824557#0"/>
    </person>
    <person id="ped228" depart="1741.33">
        <walk from="537946552#7" to="439027697"/>
    </person>
    <person id="ped229" depart="1748.97">
        <walk from="4756456" to="149540138#1"/>
    </person>
    <person id="ped230" depart="1756.61">
        <walk from="-671832297#1" to="150077812#0"/>
    </person>
    <person id="ped231" depart="1764.24">
        <walk from="149540137#4" to="209114497"/>
    </person>
    <person id="ped232" depart="1771.88">
        <walk from="45586343#0" to="138347489#2"/>
    </person>
    <person id="ped233" depart="1779.52">
        <walk from="142517766#0" to="4824704#1"/>
    </person>
    <person id="ped234" depart="1787.16">
        <walk from="4828723#0" to="-4824702#1"/>
    </person>
    <person id="ped235" depart="1794.79">
        <walk from="27557419#0" to="45586343#2"/>
    </person>
    <person id="ped236" depart="1802.43">
        <walk from="294731046#0" to="140772396#8"/>
    </person>
    <person id="ped237" depart="1810.07">
        <walk from="314789426#0" to="682283994#0"/>
    </person>
    <person id="ped238" depart="1817.71">
        <walk from="45639058" to="4824704#2"/>
    </person>
    <person id="ped239" depart="1825.34">
        <walk from="59851743#2" to="537946552#7"/>
    </person>
    <person id="ped240" depart="1832.98">
        <walk from="209114527#8" to="-138419767#1"/>
    </person>
    <person id="ped241" depart="1840.62">
        <walk from="209114520#7" to="537946552#16"/>
    </person>
    <person id="ped242" depart="1848.26">
        <walk from="59851521#9" to="84657863#1"/>
    </person>
    <person id="ped243" depart="1855.89">
        <walk from="314789414" to="537946552#12"/>
    </person>
    <person id="ped244" depart="1863.53">
        <walk from="45586344#0" to="4652507#2"/>
    </person>
    <person id="ped245" depart="1871.17">
        <walk from="142356185#0" to="140772448#5"/>
    </person>
    <person id="ped246" depart="1878.80">
        <walk from="314789433#1" to="-142517768#6"/>
    </person>
    <person id="ped247" depart="1886.44">
        <walk from="209114519#0" to="4824698#1"/>
    </person>
    <person id="ped248" depart="1894.08">
        <walk from="265499418" to="138419767#1"/>
    </person>
    <person id="ped249" depart="1901.72">
        <walk from="371146261#15" to="131333220#2"/>
    </person>
    <person id="ped250" depart="1909.35">
        <walk from="4756454#1" to="-142517768#3"/>
    </person>
    <person id="ped251" depart="1916.99">
        <walk from="265499402#0" to="45586347#5"/>
    </person>
    <person id="ped252" depart="1924.63">
        <walk from="-142517768#3" to="4824567#1"/>
    </person>
    <person id="ped253" depart="1932.27">
        <walk from="138347489#0" to="371146261#11"/>
    </person>
    <person id="ped254" depart="1939.90">
        <walk from="-4218501#0" to="209114527#7"/>
    </person>
    <person id="ped255" depart="1947.54">
        <walk from="140772426" to="209114514#2"/>
    </person>
    <person id="ped256" depart="1955.18">
        <walk from="537946552#3" to="209114527#7"/>
    </person>
    <person id="ped257" depart="1962.82">
        <walk from="537946552#15" to="59851521#16"/>
    </person>
    <person id="ped258" depart="1970.45">
        <walk from="142519288#1" to="-682283993#2"/>
    </person>
    <person id="ped259" depart="1978.09">
        <walk from="-142356185#1" to="454115422#5"/>
    </person>
    <person id="ped260" depart="1985.73">
        <walk from="98638605#3" to="209114520#6"/>
    </person>
    <person id="ped261" depart="1993.37">
        <walk from="4824570#1" to="537957150#4"/>
    </person>
    <person id="ped262" depart="2001.00">
        <walk from="4824571#0" to="537946552#17"/>
    </person>
    <person id="ped263" depart="2008.64">
        <walk from="84657862#1" to="140772396#10"/>
    </person>
    <person id="ped264" depart="2016.28">
        <walk from="-142356187#0" to="138347514#1"/>
    </person>
    <person id="ped265" depart="2023.92">
        <walk from="131333220#1" to="4824695#1"/>
    </person>
    <person id="ped266" depart="2031.55">
        <walk from="45586347#5" to="140772448#4"/>
    </person>
    <person id="ped267" depart="2039.19">
        <walk from="4824707" to="537946552#8"/>
    </person>
    <person id="ped268" depart="2046.83">
        <walk from="138419768#1" to="4693898#1"/>
    </person>
    <person id="ped269" depart="2054.47">
        <walk from="537946552#12" to="130764248#6"/>
    </person>
    <person id="ped270" depart="2062.10">
        <walk from="545234073#8" to="84657865"/>
    </person>
    <person id="ped271" depart="2069.74">
        <walk from="130764248#1" to="-142517768#2"/>
    </person>
    <person id="ped272" depart="2077.38">
        <walk from="177044948" to="4824698#0"/>
    </person>
    <person id="ped273" depart="2085.02">
        <walk from="84657863#4" to="265499402#2"/>
    </person>
    <person id="ped274" depart="2092.65">
        <walk from="4828726#0" to="-671832297#0"/>
    </person>
    <person id="ped275" depart="2100.29">
        <walk from="4824703#7" to="4756457#0"/>
    </person>
    <person id="ped276" depart="2107.93">
        <walk from="130764244#0" to="537957147"/>
    </person>
    <person id="ped277" depart="2115.56">
        <walk from="59851521#7" to="4652507#0"/>
    </person>
    <person id="ped278" depart="2123.20">
        <walk from="130876649#1" to="90697744"/>
    </person>
    <person id="ped279" depart="2130.84">
        <walk from="538967640" to="209114520#4"/>
    </person>
    <person id="ped280" depart="2138.48">
        <walk from="314789428#1" to="209114527#16"/>
    </person>
    <person id="ped281" depart="2146.11">