<?xml version="1.0" encoding="UTF-8"?>

<!-- generated on 07/14/20 20:17:45 by SUMO polyconvert Version 0.32.0
<?xml version="1.0" encoding="UTF-8"?>

<configuration xmlns:xsi="http://www.w3.org/2001/XMLSchema-instance" xsi:noNamespaceSchemaLocation="http://sumo.dlr.de/xsd/polyconvertConfiguration.xsd">

    <input>
        <net-file value="C:\Users\JTech%20Global\Sumo\2020-07-14-20-17-39\osm.net.xml"/>
        <osm-files value="osm_bbox.osm.xml"/>
        <osm.keep-full-type value="true"/>
        <type-file value="C:\Program%20Files%20(x86)\DLR\Sumo\data\typemap\osmPolyconvert.typ.xml"/>
    </input>

    <output>
        <output-file value="C:\Users\JTech%20Global\Sumo\2020-07-14-20-17-39\osm.poly.xml"/>
    </output>

    <processing>
        <poi-layer-offset value="5"/>
    </processing>

    <report>
        <verbose value="true"/>
    </report>

</configuration>
-->

<additional xmlns:xsi="http://www.w3.org/2001/XMLSchema-instance" xsi:noNamespaceSchemaLocation="http://sumo.dlr.de/xsd/additional_file.xsd">
    <location netOffset="-477319.10,-5551701.19" convBoundary="-733.44,-1001.75,2638.24,2857.74" origBoundary="8.672398,50.108159,8.719584,50.142877" projParameter="+proj=utm +zone=32 +ellps=WGS84 +datum=WGS84 +units=m +no_defs"/>

    <poly id="130523746" type="building.yes" color="255,230,230" fill="1" layer="-1.00" shape="847.42,1091.36 842.23,1079.25 830.67,1084.18 833.20,1090.40 835.87,1096.29 847.42,1091.36"/>
    <poly id="130523747" type="building.yes" color="255,230,230" fill="1" layer="-1.00" shape="851.04,1105.89 847.95,1098.69 838.61,1102.68 841.70,1109.88 851.04,1105.89"/>
    <poly id="130523748" type="building.yes" color="255,230,230" fill="1" layer="-1.00" shape="864.95,1168.90 861.15,1157.95 869.25,1155.02 873.16,1166.26 871.93,1166.66 864.95,1168.90"/>
    <poly id="130523749" type="building.yes" color="255,230,230" fill="1" layer="-1.00" shape="842.23,1079.25 837.18,1067.51 833.89,1068.92 825.63,1072.45 830.67,1084.18 842.23,1079.25"/>
    <poly id="130523750" type="building.yes" color="255,230,230" fill="1" layer="-1.00" shape="872.32,1100.40 875.23,1107.09 884.67,1103.02 881.77,1096.33 878.69,1097.66 872.32,1100.40"/>
    <poly id="130523751" type="building.yes" color="255,230,230" fill="1" layer="-1.00" shape="865.62,1093.24 869.30,1101.71 872.32,1100.40 878.69,1097.66 875.01,1089.19 865.62,1093.24"/>
    <poly id="130523752" type="building.yes" color="255,230,230" fill="1" layer="-1.00" shape="883.67,1125.02 881.53,1125.95 877.21,1127.81 880.19,1134.67 886.65,1131.89 883.67,1125.02"/>
    <poly id="130523753" type="building.yes" color="255,230,230" fill="1" layer="-1.00" shape="890.29,1111.17 879.09,1115.99 877.51,1116.68 881.53,1125.95 883.67,1125.02 894.31,1120.42 890.29,1111.17"/>
    <poly id="130523754" type="building.yes" color="255,230,230" fill="1" layer="-1.00" shape="875.23,1107.09 879.09,1115.99 890.29,1111.17 892.13,1110.37 888.26,1101.47 884.67,1103.02 875.23,1107.09"/>
    <poly id="130523755" type="building.yes" color="255,230,230" fill="1" layer="-1.00" shape="850.05,1129.33 869.21,1121.15 865.98,1113.63 855.81,1117.98 854.68,1115.36 845.70,1119.20 850.05,1129.33"/>
    <poly id="130523756" type="building.yes" color="255,230,230" fill="1" layer="-1.00" shape="833.89,1068.92 830.13,1060.17 828.04,1061.06 826.78,1058.13 820.61,1060.76 825.63,1072.45 833.89,1068.92"/>
    <poly id="130523757" type="building.yes" color="255,230,230" fill="1" layer="-1.00" shape="862.63,1135.04 860.89,1130.98 871.48,1126.45 869.21,1121.15 850.05,1129.33 854.07,1138.70 862.63,1135.04"/>
    <poly id="130523758" type="building.yes" color="255,230,230" fill="1" layer="-1.00" shape="845.70,1119.20 854.68,1115.36 852.82,1111.01 862.69,1106.80 860.55,1101.83 851.04,1105.89 841.70,1109.88 845.70,1119.20"/>
    <poly id="130523759" type="building.yes" color="255,230,230" fill="1" layer="-1.00" shape="847.95,1098.69 846.59,1095.52 853.68,1092.49 852.30,1089.29 847.42,1091.36 835.87,1096.29 838.61,1102.68 847.95,1098.69"/>
    <poly id="130523760" type="building.apartments" color="255,230,230" fill="1" layer="-1.00" shape="867.51,1176.81 874.44,1177.52 886.95,1166.82 882.84,1162.07 873.09,1170.26 871.93,1166.66 864.95,1168.90 867.51,1176.81"/>
    <poly id="130523761" type="building.yes" color="255,230,230" fill="1" layer="-1.00" shape="857.28,1147.42 861.15,1157.95 869.25,1155.02 872.82,1153.72 869.83,1145.75 876.18,1143.38 875.02,1140.31 868.67,1142.69 857.28,1147.42"/>
    <poly id="130523762" type="building.yes" color="255,230,230" fill="1" layer="-1.00" shape="868.67,1142.69 867.47,1139.51 873.42,1137.29 871.88,1133.20 863.19,1136.52 862.63,1135.04 854.07,1138.70 857.28,1147.42 868.67,1142.69"/>
    <poly id="130535213" type="building.yes" color="255,230,230" fill="1" layer="-1.00" shape="849.51,1080.15 854.85,1078.00 851.81,1070.51 846.47,1072.66 849.51,1080.15"/>
    <poly id="130535231" type="building.yes" color="255,230,230" fill="1" layer="-1.00" shape="829.88,1051.68 832.83,1052.07 833.64,1045.95 817.09,1043.88 814.85,1046.85 819.58,1056.57 829.88,1051.68"/>
    <poly id="130536326" type="building.yes" color="255,230,230" fill="1" layer="-1.00" shape="763.81,1218.45 770.64,1220.47 767.29,1231.71 760.47,1229.69 763.81,1218.45"/>
    <poly id="130536327" type="building.yes" color="255,230,230" fill="1" layer="-1.00" shape="753.64,1215.44 763.81,1218.45 760.47,1229.69 750.30,1226.68 753.64,1215.44"/>
    <poly id="130536328" type="building.yes" color="255,230,230" fill="1" layer="-1.00" shape="742.95,1212.27 753.64,1215.44 750.30,1226.68 739.60,1223.52 742.95,1212.27"/>
    <poly id="130536329" type="building.apartments" color="255,230,230" fill="1" layer="-1.00" shape="692.95,1227.91 691.66,1212.84 704.47,1211.83 705.58,1226.87 692.95,1227.91"/>
    <poly id="130536330" type="building.yes" color="255,230,230" fill="1" layer="-1.00" shape="770.64,1220.47 773.89,1211.79 782.97,1215.17 779.73,1223.85 770.64,1220.47"/>
    <poly id="130536331" type="building.apartments" color="255,230,230" fill="1" layer="-1.00" shape="690.46,1197.60 702.05,1196.69 701.09,1184.58 689.50,1185.49 690.46,1197.60"/>
    <poly id="130536332" type="building.apartments" color="255,230,230" fill="1" layer="-1.00" shape="708.87,1256.29 717.33,1248.40 708.00,1238.44 699.53,1246.32 708.87,1256.29"/>
    <poly id="130536333" type="building.yes" color="255,230,230" fill="1" layer="-1.00" shape="801.75,1207.53 810.11,1209.77 811.17,1205.86 812.93,1199.39 804.57,1197.13 801.75,1207.53"/>
    <poly id="130536334" type="building.yes" color="255,230,230" fill="1" layer="-1.00" shape="793.44,1206.29 801.50,1208.45 801.75,1207.53 804.57,1197.13 796.51,1194.96 793.44,1206.29"/>
    <poly id="130536335" type="building.apartments" color="255,230,230" fill="1" layer="-1.00" shape="691.66,1212.84 704.47,1211.83 703.26,1196.59 702.05,1196.69 690.46,1197.60 691.66,1212.84"/>
    <poly id="130536336" type="building.yes" color="255,230,230" fill="1" layer="-1.00" shape="745.92,1237.80 739.48,1242.89 746.50,1251.71 754.90,1245.08 747.88,1236.25 745.92,1237.80"/>
    <poly id="130536337" type="building.yes" color="255,230,230" fill="1" layer="-1.00" shape="778.83,1199.57 778.13,1202.16 793.44,1206.29 796.51,1194.96 781.19,1190.84 778.83,1199.57"/>
    <poly id="130536338" type="building.yes" color="255,230,230" fill="1" layer="-1.00" shape="759.71,1192.55 762.77,1193.38 759.45,1205.52 766.34,1207.40 771.62,1188.04 761.67,1185.35 759.71,1192.55"/>
    <poly id="130536339" type="building.yes" color="255,230,230" fill="1" layer="-1.00" shape="699.78,1168.82 700.25,1174.49 701.89,1174.88 701.30,1177.33 711.88,1180.06 713.97,1172.41 699.78,1168.82"/>
    <poly id="130536340" type="building.apartments" color="255,230,230" fill="1" layer="-1.00" shape="820.87,1208.47 821.57,1211.30 829.61,1209.26 828.16,1203.49 812.93,1199.39 811.17,1205.86 820.87,1208.47"/>
    <poly id="130536341" type="building.yes" color="255,230,230" fill="1" layer="-1.00" shape="735.06,1200.30 739.71,1201.57 742.91,1189.84 749.82,1191.71 752.25,1182.79 740.68,1179.66 735.06,1200.30"/>
    <poly id="130536342" type="building.yes" color="255,230,230" fill="1" layer="-1.00" shape="713.97,1172.41 711.88,1180.06 710.83,1183.93 725.13,1187.81 725.56,1186.22 728.27,1176.29 713.97,1172.41"/>
    <poly id="130536343" type="building.apartments" color="255,230,230" fill="1" layer="-1.00" shape="716.91,1264.87 731.71,1251.10 727.68,1246.82 721.35,1252.70 717.33,1248.40 708.87,1256.29 716.91,1264.87"/>
    <poly id="130536344" type="building.apartments" color="255,230,230" fill="1" layer="-1.00" shape="731.11,1280.24 740.46,1272.37 741.66,1271.37 735.39,1263.96 732.85,1266.43 724.91,1273.42 731.11,1280.24"/>
    <poly id="130536345" type="building.yes" color="255,230,230" fill="1" layer="-1.00" shape="766.34,1207.40 771.97,1208.92 774.83,1198.47 778.83,1199.57 781.19,1190.84 771.62,1188.04 766.34,1207.40"/>
    <poly id="130536346" type="building.apartments" color="255,230,230" fill="1" layer="-1.00" shape="689.50,1185.49 701.09,1184.58 700.25,1174.49 699.78,1168.82 690.41,1165.41 687.98,1167.57 689.50,1185.49"/>
    <poly id="130536347" type="building.apartments" color="255,230,230" fill="1" layer="-1.00" shape="706.39,1236.71 705.58,1226.87 692.95,1227.91 693.97,1240.37 699.53,1246.32 708.00,1238.44 706.39,1236.71"/>
    <poly id="130536348" type="building.yes" color="255,230,230" fill="1" layer="-1.00" shape="749.82,1191.71 747.09,1201.68 752.71,1203.21 755.90,1191.51 759.71,1192.55 761.67,1185.35 752.25,1182.79 749.82,1191.71"/>
    <poly id="130536349" type="building.apartments" color="255,230,230" fill="1" layer="-1.00" shape="724.91,1273.42 732.85,1266.43 728.24,1261.49 731.56,1258.40 732.50,1259.39 736.21,1255.92 731.71,1251.10 716.91,1264.87 724.91,1273.42"/>
    <poly id="130536350" type="building.yes" color="255,230,230" fill="1" layer="-1.00" shape="725.56,1186.22 730.66,1187.60 729.51,1191.82 727.27,1191.21 725.50,1197.70 735.06,1200.30 740.68,1179.66 728.27,1176.29 725.56,1186.22"/>
    <poly id="130546665" type="building.yes" color="255,230,230" fill="1" layer="-1.00" shape="747.15,1156.32 753.30,1134.10 744.29,1131.62 742.31,1138.80 744.24,1139.34 743.63,1141.52 746.03,1142.18 745.50,1144.11 737.74,1141.97 734.72,1152.89 747.15,1156.32"/>
    <poly id="130546666" type="building.yes" color="255,230,230" fill="1" layer="-1.00" shape="748.37,1091.31 740.86,1092.19 742.35,1107.56 752.63,1106.75 752.18,1103.19 765.40,1098.98 766.17,1101.41 770.72,1099.96 766.80,1087.73 759.59,1090.03 758.92,1087.94 748.37,1091.31"/>
    <poly id="130546667" type="building.yes" color="255,230,230" fill="1" layer="-1.00" shape="748.37,1091.31 758.92,1087.94 755.60,1077.61 745.06,1080.97 748.37,1091.31"/>
    <poly id="130546679" type="building.yes" color="255,230,230" fill="1" layer="-1.00" shape="800.57,1129.60 805.77,1145.59 818.39,1141.52 813.18,1125.53 800.57,1129.60"/>
    <poly id="130546685" type="building.apartments" color="255,230,230" fill="1" layer="-1.00" shape="692.17,1082.84 691.44,1069.40 680.70,1069.99 681.43,1083.42 692.17,1082.84"/>
    <poly id="130546686" type="building.apartments" color="255,230,230" fill="1" layer="-1.00" shape="691.44,1069.40 690.76,1056.97 680.02,1057.56 680.70,1069.99 691.44,1069.40"/>
    <poly id="130546689" type="building.yes" color="255,230,230" fill="1" layer="-1.00" shape="716.01,1080.94 724.66,1080.09 726.42,1071.61 717.84,1070.16 716.01,1080.94"/>
    <poly id="130546690" type="building.yes" color="255,230,230" fill="1" layer="-1.00" shape="781.35,1165.73 795.32,1169.57 798.73,1157.23 784.77,1153.40 781.35,1165.73"/>
    <poly id="130546691" type="building.yes" color="255,230,230" fill="1" layer="-1.00" shape="717.84,1070.16 726.42,1071.61 727.93,1062.77 719.35,1061.31 717.84,1070.16"/>
    <poly id="130546707" type="building.apartments" color="255,230,230" fill="1" layer="-1.00" shape="682.82,1110.35 695.35,1109.70 694.61,1095.54 682.13,1096.22 682.82,1110.35"/>
    <poly id="130546710" type="building.yes" color="255,230,230" fill="1" layer="-1.00" shape="710.81,1146.32 713.82,1135.42 714.19,1134.09 702.20,1130.80 698.82,1143.02 710.81,1146.32"/>
    <poly id="130546711" type="building.apartments" color="255,230,230" fill="1" layer="-1.00" shape="683.70,1126.93 694.29,1126.36 696.22,1126.26 695.35,1109.70 682.82,1110.35 683.70,1126.93"/>
    <poly id="130546712" type="building.yes" color="255,230,230" fill="1" layer="-1.00" shape="744.16,1071.95 756.21,1073.31 757.18,1064.81 745.12,1063.45 744.89,1065.41 744.16,1071.95"/>
    <poly id="130546714" type="building.apartments" color="255,230,230" fill="1" layer="-1.00" shape="680.02,1057.56 690.76,1056.97 690.19,1046.60 687.98,1046.72 679.45,1047.18 680.02,1057.56"/>
    <poly id="130546716" type="building.yes" color="255,230,230" fill="1" layer="-1.00" shape="731.88,1071.77 744.02,1073.14 744.16,1071.95 744.89,1065.41 732.76,1064.04 731.88,1071.77"/>
    <poly id="130546717" type="building.yes" color="255,230,230" fill="1" layer="-1.00" shape="784.40,1078.09 788.70,1091.98 791.82,1091.02 801.54,1088.04 797.24,1074.13 784.40,1078.09"/>
    <poly id="130546720" type="building.yes" color="255,230,230" fill="1" layer="-1.00" shape="738.62,1115.12 738.51,1110.39 738.46,1107.75 727.10,1108.00 727.27,1115.38 738.62,1115.12"/>
    <poly id="130546721" type="building.yes" color="255,230,230" fill="1" layer="-1.00" shape="797.23,1114.74 795.88,1115.17 800.57,1129.60 813.18,1125.53 808.48,1111.09 797.23,1114.74"/>
    <poly id="130546728" type="building.apartments" color="255,230,230" fill="1" layer="-1.00" shape="682.13,1096.22 694.61,1095.54 693.91,1082.74 692.17,1082.84 681.43,1083.42 682.13,1096.22"/>
    <poly id="130546730" type="building.yes" color="255,230,230" fill="1" layer="-1.00" shape="725.78,1091.47 724.66,1080.09 716.01,1080.94 714.45,1081.09 715.57,1092.47 725.78,1091.47"/>
    <poly id="130546733" type="building.yes" color="255,230,230" fill="1" layer="-1.00" shape="783.07,1107.41 785.00,1113.33 795.65,1109.89 797.23,1114.74 808.48,1111.09 804.98,1100.33 783.07,1107.41"/>
    <poly id="130546736" type="building.yes" color="255,230,230" fill="1" layer="-1.00" shape="784.77,1153.40 777.31,1151.34 780.07,1141.37 776.19,1140.31 770.02,1162.61 781.35,1165.73 784.77,1153.40"/>
    <poly id="130546743" type="building.yes" color="255,230,230" fill="1" layer="-1.00" shape="811.70,1163.79 812.29,1165.60 810.19,1172.72 827.52,1177.35 829.46,1175.58 824.31,1159.72 811.70,1163.79"/>
    <poly id="130546745" type="building.apartments" color="255,230,230" fill="1" layer="-1.00" shape="684.57,1136.65 686.77,1139.70 698.82,1143.02 702.20,1130.80 695.19,1128.87 694.29,1126.36 683.70,1126.93 684.57,1136.65"/>
    <poly id="130546750" type="building.yes" color="255,230,230" fill="1" layer="-1.00" shape="770.02,1162.61 776.19,1140.31 769.17,1138.37 766.12,1149.40 761.02,1148.00 760.68,1149.21 757.90,1159.28 770.02,1162.61"/>
    <poly id="130546754" type="building.yes" color="255,230,230" fill="1" layer="-1.00" shape="778.93,1064.97 780.83,1071.10 776.48,1072.43 778.02,1077.44 783.66,1075.70 784.40,1078.09 797.24,1074.13 793.06,1060.62 778.93,1064.97"/>
    <poly id="130546757" type="building.yes" color="255,230,230" fill="1" layer="-1.00" shape="789.32,1048.54 780.46,1051.26 775.72,1052.73 778.06,1060.29 774.00,1061.54 775.40,1066.05 778.93,1064.97 793.06,1060.62 789.32,1048.54"/>
    <poly id="130546758" type="building.yes" color="255,230,230" fill="1" layer="-1.00" shape="734.72,1152.89 722.72,1149.59 728.85,1127.46 735.08,1129.17 732.96,1136.80 731.53,1136.40 730.54,1139.99 737.74,1141.97 734.72,1152.89"/>
    <poly id="130546760" type="building.yes" color="255,230,230" fill="1" layer="-1.00" shape="791.82,1091.02 794.23,1098.84 790.52,1099.98 789.66,1097.20 781.09,1099.84 783.07,1107.41 804.98,1100.33 801.54,1088.04 791.82,1091.02"/>
    <poly id="130546762" type="building.yes" color="255,230,230" fill="1" layer="-1.00" shape="722.72,1149.59 728.85,1127.46 720.42,1125.14 718.41,1132.39 720.06,1132.85 718.96,1136.83 713.82,1135.42 710.81,1146.32 722.72,1149.59"/>
    <poly id="130546763" type="building.yes" color="255,230,230" fill="1" layer="-1.00" shape="760.68,1149.21 754.45,1147.50 755.94,1142.12 756.67,1142.31 758.54,1135.55 753.30,1134.10 747.15,1156.32 757.90,1159.28 760.68,1149.21"/>
    <poly id="130577823" type="building.yes" color="255,230,230" fill="1" layer="-1.00" shape="821.35,1150.62 818.39,1141.52 805.77,1145.59 808.74,1154.70 821.35,1150.62"/>
    <poly id="130577824" type="building.yes" color="255,230,230" fill="1" layer="-1.00" shape="824.31,1159.72 821.35,1150.62 808.74,1154.70 811.70,1163.79 824.31,1159.72"/>
    <poly id="130737697" type="building.yes" color="255,230,230" fill="1" layer="-1.00" shape="650.09,1256.15 646.85,1271.88 661.03,1274.80 668.28,1276.00 667.21,1259.77 650.09,1256.15"/>
    <poly id="130737698" type="building.apartments" color="255,230,230" fill="1" layer="-1.00" shape="655.73,1222.52 656.18,1227.43 654.11,1236.10 663.81,1238.24 666.87,1234.98 665.63,1221.60 655.73,1222.52"/>
    <poly id="130737699" type="building.yes" color="255,230,230" fill="1" layer="-1.00" shape="566.11,1346.99 574.97,1348.71 577.05,1338.05 569.44,1336.58 567.94,1337.56 566.11,1346.99"/>
    <poly id="130737700" type="building.yes" color="255,230,230" fill="1" layer="-1.00" shape="605.37,1259.39 609.12,1260.16 608.34,1263.91 620.97,1266.58 624.20,1250.86 607.88,1247.41 605.37,1259.39"/>
    <poly id="130737701" type="building.yes" color="255,230,230" fill="1" layer="-1.00" shape="605.39,1313.51 608.32,1300.36 600.52,1298.63 597.60,1311.79 605.39,1313.51"/>
    <poly id="130737702" type="building.construction" color="255,230,230" fill="1" layer="-1.00" shape="604.92,1261.57 605.37,1259.39 607.88,1247.41 587.63,1243.19 585.93,1251.34 584.78,1251.10 583.89,1255.33 585.05,1255.57 584.67,1257.35 591.36,1258.73 604.92,1261.57"/>
    <poly id="130737703" type="building.apartments" color="255,230,230" fill="1" layer="-1.00" shape="643.74,1154.31 641.24,1164.40 640.82,1166.12 648.73,1168.05 647.94,1171.25 651.30,1172.13 657.00,1171.52 660.26,1158.37 653.93,1156.80 654.03,1156.39 647.94,1154.89 647.85,1155.32 643.74,1154.31"/>
    <poly id="130737704" type="building.apartments" color="255,230,230" fill="1" layer="-1.00" shape="652.40,1182.30 662.25,1181.25 661.16,1171.08 657.00,1171.52 651.30,1172.13 652.40,1182.30"/>
    <poly id="130737705" type="building.apartments" color="255,230,230" fill="1" layer="-1.00" shape="650.78,1201.16 663.63,1199.98 662.66,1189.41 649.80,1190.60 650.78,1201.16"/>
    <poly id="130737706" type="building.yes" color="255,230,230" fill="1" layer="-1.00" shape="597.60,1311.79 600.52,1298.63 591.85,1296.72 588.93,1309.88 597.60,1311.79"/>
    <poly id="130737707" type="building.apartments" color="255,230,230" fill="1" layer="-1.00" shape="650.78,1201.16 652.03,1214.69 654.98,1214.42 664.88,1213.51 663.63,1199.98 650.78,1201.16"/>
    <poly id="130737708" type="building.apartments" color="255,230,230" fill="1" layer="-1.00" shape="654.98,1214.42 655.73,1222.52 665.63,1221.60 664.88,1213.51 654.98,1214.42"/>
    <poly id="130737709" type="building.yes" color="255,230,230" fill="1" layer="-1.00" shape="613.35,1158.99 614.26,1153.53 616.09,1146.12 610.25,1144.80 606.21,1147.43 604.19,1157.10 613.35,1158.99"/>
    <poly id="130737710" type="building.yes" color="255,230,230" fill="1" layer="-1.00" shape="631.33,1161.98 641.24,1164.40 643.74,1154.31 644.06,1153.00 634.15,1150.56 631.33,1161.98"/>
    <poly id="130737711" type="building.yes" color="255,230,230" fill="1" layer="-1.00" shape="595.81,1198.98 606.87,1200.88 608.66,1190.82 597.65,1188.65 595.81,1198.98"/>
    <poly id="130737712" type="building.yes" color="255,230,230" fill="1" layer="-1.00" shape="591.32,1221.91 606.01,1224.87 607.71,1216.51 601.93,1215.36 603.49,1207.67 594.57,1205.87 591.32,1221.91"/>
    <poly id="130737713" type="building.apartments" color="255,230,230" fill="1" layer="-1.00" shape="605.55,1360.86 610.19,1368.69 616.74,1364.83 610.97,1355.11 606.85,1356.46 608.50,1359.12 605.55,1360.86"/>
    <poly id="130737714" type="building.commercial" color="255,230,230" fill="1" layer="-1.00" shape="632.77,1268.99 622.73,1316.90 651.20,1322.83 652.22,1318.21 652.96,1314.56 653.66,1311.12 655.36,1302.76 657.79,1300.24 659.03,1297.65 659.51,1294.58 659.25,1292.22 658.14,1289.94 658.45,1288.60 669.14,1290.41 668.28,1276.00 661.03,1274.80 646.85,1271.88 645.56,1271.62 632.77,1268.99"/>
    <poly id="130737715" type="building.yes" color="255,230,230" fill="1" layer="-1.00" shape="641.78,1233.39 649.35,1235.15 651.18,1227.27 643.60,1225.53 641.78,1233.39"/>
    <poly id="130737716" type="building.yes" color="255,230,230" fill="1" layer="-1.00" shape="582.59,1272.84 593.57,1274.89 594.24,1271.30 598.54,1272.10 599.66,1266.11 584.38,1263.27 582.59,1272.84"/>
    <poly id="130737717" type="building.yes" color="255,230,230" fill="1" layer="-1.00" shape="581.21,1280.22 592.18,1282.27 593.57,1274.89 582.59,1272.84 581.21,1280.22"/>
    <poly id="130737718" type="building.yes" color="255,230,230" fill="1" layer="-1.00" shape="579.63,1288.66 590.86,1289.36 592.18,1282.27 581.21,1280.22 579.63,1288.66"/>
    <poly id="130737719" type="building.yes" color="255,230,230" fill="1" layer="-1.00" shape="620.70,1155.12 619.71,1159.12 631.33,1161.98 634.15,1150.56 622.53,1147.70 620.70,1155.12"/>
    <poly id="130737720" type="building.yes" color="255,230,230" fill="1" layer="-1.00" shape="603.97,1351.12 607.74,1351.85 606.85,1356.46 610.97,1355.11 613.11,1344.10 605.61,1342.65 603.97,1351.12"/>
    <poly id="130737723" type="building.yes" color="255,230,230" fill="1" layer="-1.00" shape="588.93,1309.88 591.85,1296.72 579.06,1293.90 576.14,1307.05 588.93,1309.88"/>
    <poly id="130737724" type="building.yes" color="255,230,230" fill="1" layer="-1.00" shape="563.98,1357.89 572.85,1359.61 574.97,1348.71 566.11,1346.99 563.98,1357.89"/>
    <poly id="130737729" type="building.yes" color="255,230,230" fill="1" layer="-1.00" shape="566.76,1372.96 570.13,1373.61 572.85,1359.61 563.98,1357.89 561.26,1371.89 566.76,1372.96"/>
    <poly id="130737730" type="building.yes" color="255,230,230" fill="1" layer="-1.00" shape="559.97,1378.56 565.47,1379.62 566.76,1372.96 561.26,1371.89 559.97,1378.56"/>
    <poly id="130737731" type="building.apartments" color="255,230,230" fill="1" layer="-1.00" shape="602.50,1373.23 610.19,1368.69 605.55,1360.86 604.80,1359.58 597.10,1364.11 602.50,1373.23"/>
    <poly id="130737732" type="building.yes" color="255,230,230" fill="1" layer="-1.00" shape="643.60,1225.53 634.59,1223.44 632.76,1231.32 641.78,1233.39 643.60,1225.53"/>
    <poly id="130737733" type="building.yes" color="255,230,230" fill="1" layer="-1.00" shape="614.26,1153.53 620.70,1155.12 622.53,1147.70 616.09,1146.12 614.26,1153.53"/>
    <poly id="130737734" type="building.yes" color="255,230,230" fill="1" layer="-1.00" shape="592.09,1348.84 603.97,1351.12 605.61,1342.65 593.73,1340.37 592.09,1348.84"/>
    <poly id="130737735" type="building.apartments" color="255,230,230" fill="1" layer="-1.00" shape="593.80,1378.36 602.50,1373.23 597.10,1364.11 591.10,1367.65 592.01,1369.17 589.29,1370.77 593.80,1378.36"/>
    <poly id="130737736" type="building.yes" color="255,230,230" fill="1" layer="-1.00" shape="632.76,1231.32 634.59,1223.44 635.59,1219.09 625.26,1216.70 622.42,1228.93 632.76,1231.32"/>
    <poly id="130737737" type="building.yes" color="255,230,230" fill="1" layer="-1.00" shape="581.02,1346.70 592.09,1348.84 593.73,1340.37 588.56,1339.37 588.36,1340.39 582.46,1339.26 581.02,1346.70"/>
    <poly id="130737738" type="building.yes" color="255,230,230" fill="1" layer="-1.00" shape="620.97,1266.58 632.77,1268.99 645.56,1271.62 646.85,1271.88 650.09,1256.15 624.20,1250.86 620.97,1266.58"/>
    <poly id="130737739" type="building.apartments" color="255,230,230" fill="1" layer="-1.00" shape="585.46,1383.28 593.80,1378.36 589.29,1370.77 587.64,1371.75 586.72,1370.21 580.05,1374.14 585.46,1383.28"/>
    <poly id="130737740" type="building.yes" color="255,230,230" fill="1" layer="-1.00" shape="612.76,1315.14 615.68,1301.98 608.32,1300.36 605.39,1313.51 612.76,1315.14"/>
    <poly id="130737741" type="building.yes" color="255,230,230" fill="1" layer="-1.00" shape="606.01,1224.87 614.31,1226.54 616.62,1215.13 608.32,1213.46 607.71,1216.51 606.01,1224.87"/>
    <poly id="130737742" type="building.apartments" color="255,230,230" fill="1" layer="-1.00" shape="577.93,1387.71 585.46,1383.28 580.05,1374.14 574.81,1377.23 575.81,1378.90 573.51,1380.26 577.93,1387.71"/>
    <poly id="130737744" type="building.yes" color="255,230,230" fill="1" layer="-1.00" shape="597.65,1188.65 608.66,1190.82 610.54,1181.34 599.54,1179.16 597.65,1188.65"/>
    <poly id="130737745" type="building.yes" color="255,230,230" fill="1" layer="-1.00" shape="609.77,1288.06 618.30,1289.84 621.51,1274.57 612.99,1272.80 609.77,1288.06"/>
    <poly id="130737746" type="building.yes" color="255,230,230" fill="1" layer="-1.00" shape="612.86,1170.36 601.86,1168.14 599.54,1179.16 610.54,1181.34 612.86,1170.36"/>
    <poly id="130737747" type="building.yes" color="255,230,230" fill="1" layer="-1.00" shape="620.63,1354.18 621.58,1347.01 636.01,1350.80 636.29,1354.28 625.44,1360.45 620.63,1354.18"/>
    <poly id="130737748" type="building.yes" color="255,230,230" fill="1" layer="-1.00" shape="618.68,1201.85 622.29,1180.60 638.40,1183.33 634.80,1204.57 622.27,1202.45 618.68,1201.85"/>
    <poly id="130737749" type="building.yes" color="255,230,230" fill="1" layer="-1.00" shape="621.50,1206.97 637.21,1209.63 637.98,1205.10 634.80,1204.57 622.27,1202.45 621.50,1206.97"/>
    <poly id="130737750" type="building.yes" color="255,230,230" fill="1" layer="-1.00" shape="613.93,1201.04 612.77,1207.90 621.10,1209.31 621.50,1206.97 622.27,1202.45 618.68,1201.85 613.93,1201.04"/>
    <poly id="130738339" type="building.apartments" color="255,230,230" fill="1" layer="-1.00" shape="646.59,1123.59 636.18,1121.52 634.67,1129.04 653.89,1132.86 656.65,1131.57 657.68,1128.73 657.50,1118.22 646.85,1119.28 646.59,1123.59"/>
    <poly id="130738340" type="building.yes" color="255,230,230" fill="1" layer="-1.00" shape="618.36,1079.90 617.02,1087.78 626.20,1089.34 630.70,1090.10 632.04,1082.21 618.36,1079.90"/>
    <poly id="130738343" type="building.apartments" color="255,230,230" fill="1" layer="-1.00" shape="641.61,1062.09 651.75,1061.07 650.61,1049.71 641.62,1050.60 640.47,1050.72 641.61,1062.09"/>
    <poly id="130738344" type="building.apartments" color="255,230,230" fill="1" layer="-1.00" shape="642.21,1080.43 653.59,1079.29 651.75,1061.07 641.61,1062.09 640.38,1062.20 642.21,1080.43"/>
    <poly id="130738345" type="building.apartments" color="255,230,230" fill="1" layer="-1.00" shape="641.98,1096.01 655.14,1094.69 653.59,1079.29 642.21,1080.43 640.43,1080.62 641.98,1096.01"/>
    <poly id="130738346" type="building.apartments" color="255,230,230" fill="1" layer="-1.00" shape="643.47,1110.86 656.63,1109.54 655.14,1094.69 641.98,1096.01 643.47,1110.86"/>
    <poly id="130738347" type="building.yes" color="255,230,230" fill="1" layer="-1.00" shape="617.02,1087.78 615.58,1096.25 627.21,1098.22 628.11,1092.91 625.66,1092.50 626.20,1089.34 617.02,1087.78"/>
    <poly id="130738348" type="building.apartments" color="255,230,230" fill="1" layer="-1.00" shape="646.85,1119.28 657.50,1118.22 656.63,1109.54 643.47,1110.86 644.34,1119.54 646.85,1119.28"/>
    <poly id="130738349" type="building.yes" color="255,230,230" fill="1" layer="-1.00" shape="615.58,1096.25 614.25,1104.04 630.96,1106.87 631.95,1101.03 628.68,1100.48 629.01,1098.53 627.21,1098.22 615.58,1096.25"/>
    <poly id="130738351" type="building.yes" color="255,230,230" fill="1" layer="-1.00" shape="625.66,1127.25 634.67,1129.04 636.18,1121.52 637.05,1117.12 628.05,1115.34 627.57,1117.73 625.66,1127.25"/>
    <poly id="130738353" type="building.yes" color="255,230,230" fill="1" layer="-1.00" shape="611.28,1124.44 625.66,1127.25 627.57,1117.73 621.30,1116.83 622.14,1111.01 613.40,1109.75 611.28,1124.44"/>
    <poly id="130738354" type="building.yes" color="255,230,230" fill="1" layer="-1.00" shape="629.72,1063.57 631.81,1050.12 624.48,1048.99 622.39,1062.44 629.72,1063.57"/>
    <poly id="130738355" type="building.yes" color="255,230,230" fill="1" layer="-1.00" shape="620.56,1074.29 631.64,1076.00 633.47,1064.14 629.72,1063.57 622.39,1062.44 620.56,1074.29"/>
    <poly id="130764249" type="amenity.parking" color="184,184,179" fill="1" layer="-1.00" shape="450.14,1299.20 450.81,1295.65 556.43,1315.55 555.77,1319.10 450.14,1299.20"/>
    <poly id="130764252" type="amenity.parking" color="184,184,179" fill="1" layer="-1.00" shape="570.27,1321.02 570.96,1317.66 593.94,1322.40 593.25,1325.75 570.27,1321.02"/>
    <poly id="130776684" type="building.yes" color="255,230,230" fill="1" layer="-1.00" shape="405.28,1404.85 405.98,1400.73 406.30,1398.80 398.83,1397.55 398.69,1398.42 395.78,1397.93 396.68,1392.58 395.12,1392.31 384.44,1390.52 382.66,1401.05 405.28,1404.85"/>
    <poly id="130776685" type="building.yes" color="255,230,230" fill="1" layer="-1.00" shape="381.09,1410.38 393.03,1412.39 394.06,1406.23 397.81,1406.86 397.61,1408.01 404.56,1409.17 405.28,1404.85 382.66,1401.05 381.09,1410.38"/>
    <poly id="130776686" type="building.yes" color="255,230,230" fill="1" layer="-1.00" shape="528.54,1395.23 519.67,1399.47 523.53,1407.48 532.39,1403.24 528.54,1395.23"/>
    <poly id="130776687" type="building.yes" color="255,230,230" fill="1" layer="-1.00" shape="379.49,1419.85 389.31,1421.50 402.88,1423.76 403.70,1418.90 392.25,1416.98 393.03,1412.39 381.09,1410.38 379.49,1419.85"/>
    <poly id="130776688" type="building.yes" color="255,230,230" fill="1" layer="-1.00" shape="527.36,1338.16 536.34,1340.21 538.58,1330.40 529.59,1328.36 527.36,1338.16"/>