<?xml version="1.0" encoding="UTF-8"?>

<!-- generated on 07/14/20 20:17:48 by SUMO duarouter Version 0.32.0
<?xml version="1.0" encoding="UTF-8"?>

<configuration xmlns:xsi="http://www.w3.org/2001/XMLSchema-instance" xsi:noNamespaceSchemaLocation="http://sumo.dlr.de/xsd/duarouterConfiguration.xsd">

    <input>
        <net-file value="osm.net.xml"/>
        <route-files value="osm.pedestrian.trips.xml"/>
    </input>

    <output>
        <output-file value="osm.pedestrian.rou.xml"/>
        <alternatives-output value="osm.pedestrian.rou.alt.xml"/>
    </output>

    <processing>
        <ignore-errors value="true"/>
    </processing>

    <time>
        <begin value="0"/>
        <end value="3600.0"/>
    </time>

    <report>
        <no-warnings value="true"/>
        <no-step-log value="true"/>
    </report>

</configuration>
-->

<routes xmlns:xsi="http://www.w3.org/2001/XMLSchema-instance" xsi:noNamespaceSchemaLocation="http://sumo.dlr.de/xsd/routes_file.xsd">
    <person id="ped0" depart="0.00">
        <walk edges="4824557#1 148711386 209114498#0 209114498#1 142517768#0 -142517768#2"/>
    </person>
    <person id="ped1" depart="7.64">
        <walk edges="149540138#1 4828840#3 149539965#4 371146247 371146261#0 371146261#1 98428996#0 84657865 4828723#3 4828723#2 4828723#1 4828723#0 -84657872#0 -84657872#1 -4693898#0 -4693898#1 -4693898#2 -4693898#3 -142517768#0 -142517768#2 -142517768#3 -142517768#5 -142517768#6 -142517768#7 -142517768#9 -142517768#10 142356187#1"/>
    </person>
    <person id="ped2" depart="15.27">
        <walk edges="537946540#3 537946540#2 537946540#1 537946540#0 537946552#16 537946552#15 537946552#14 84657872#0 314789430 84657864#2 84657864#1 84657864#0 314789435#1 211674510 132964155#1 132964155#0 4824702#2 4824702#1 -4824702#0 4824704#0 4824704#1 4824704#2 4824698#0"/>
    </person>
    <person id="ped3" depart="22.91">
        <walk edges="682283986 4824704#0 -4824702#0 4824702#1 4824702#2 43324938#3 43324938#2 43324938#1 138347489#0 209114527#10 209114527#9 209114527#8 209114527#7 209114527#6 209114527#5 209114527#4 209114519#0 209114519#1 38345628#0 38345628#1 265499402#0 397694470#1 138419778#2 138419778#1 138419778#0 131333220#2 138419772#0 314789429#0 88111450 138419767#0 138419767#1 142519288#0 -773759798"/>
    </person>
    <person id="ped4" depart="30.55">
        <walk edges="314789426#1 4756454#1 4756454#0 -130547038 4756455#4 4760369#0 4760369#1 4760369#2 -142517768#6"/>
    </person>
    <person id="ped5" depart="38.19">
        <walk edges="140772448#4 140772448#3 140772448#2 140772448#1 140772448#0 138347489#4 138347489#3 138347489#2 138347489#1 138347489#0 538967642#0 371146261#11 371146261#10 371146261#9 371146261#8 371146261#7 389302382#5 389302382#4 389302382#3 389302382#2 682283962#0 682283962#1 4218501#1"/>
    </person>
    <person id="ped6" depart="45.82">
        <walk edges="-142517768#3 -142517768#2 142517768#0 209114498#1 209114498#0 209114517 140772396#10"/>
    </person>
    <person id="ped7" depart="53.46">
        <walk edges="4824570#1 45586347#6 45586347#5 45586347#4 45586343#3"/>
    </person>
    <person id="ped8" depart="61.10">
        <walk edges="142356185#0 98638605#0 4221194#0 4221194#1 4756456 130784151#0 130784151#1 130764246#0 138347533#1 130764248#1 397694469#0 397694469#1 138419782#2 397694470#1 397694470#0 4824571#0 4824571#1 4824571#2 45586347#2 45639063"/>
    </person>
    <person id="ped9" depart="68.74">
        <walk edges="545234071 545234073#1 545234065 454115422#3 454115422#4 454115422#5 98638605#0 142356191#4 4760371 -142519288#1 -142519288#0 -138419767#1"/>
    </person>
    <person id="ped10" depart="76.37">
        <walk edges="545234067 545234073#1 545234065 454115422#3 454115422#4 454115422#5 98638605#0 4221194#0 4221194#1 4221194#2 4221194#3 4221194#4 4221194#5 209114517 -140772396#10 140772396#9 -140772396#8 -140772396#7 -140772396#6 -140772396#5 371146261#14 371146261#13 4726271#1 43324938#1 43324938#2 43324938#3 4824702#2 4824702#1 -4824702#0 4824704#0 4824704#1 4824704#2 4824704#3 4824704#4"/>
    </person>
    <person id="ped11" depart="84.01">
        <walk edges="209114520#1 209114520#2 397694470#0 397694470#1 138419782#2 397694469#1 397694469#0 130764248#1 138347533#1 138347533#0 138347529#2 138347529#1 138347529#0"/>
    </person>
    <person id="ped12" depart="91.65">
        <walk edges="84657863#4 371146261#1 371146261#2 371146261#3 371146261#4 371146261#5 371146261#6 371146261#7 371146261#8 371146261#9 371146261#10 371146261#11 371146261#12 371146261#13 371146261#14 371146261#15 371146261#16 66227390#0 209114519#1"/>
    </person>
    <person id="ped13" depart="99.29">
        <walk edges="-96136747#1 -371146256 98428996#2 98428996#1 98428996#0 84657865 4828723#3 4828723#2 4828723#1 4828723#0 -84657872#0 -84657872#1 -4693898#0 -4693898#1 -4693898#2 -4693898#3 -142517768#0 -142517768#2 -142517768#3 130528361#1 130528361#0"/>
    </person>
    <person id="ped14" depart="106.92">
        <walk edges="59851521#5 130764248#5 59851521#7 4824557#0 4652507#0 4652507#1 4652507#2 4652507#3"/>
    </person>
    <person id="ped15" depart="114.56">
        <walk edges="545234068 545234067 545234073#1 545234065 454115422#2 454115422#1 454115422#0 142517768#10 142517768#8 142517768#7 142517768#6 142517768#4 142517768#3 142517768#1 142517768#0 209114498#1 537946552#7 537946552#8 537946552#9 537946552#10 537946552#11 537957146 84657864#1 84657864#0 4877725"/>
    </person>
    <person id="ped16" depart="122.20">
        <walk edges="454115422#3 454115422#2 454115422#1 454115422#0 -142517768#10 -142517768#9 -142517768#7 -142517768#6 -142517768#5 -142517768#3 -142517768#2 -142517768#0 -4693898#3 -4693898#2 -4693898#1 -4693898#0 -84657872#1 -84657872#0 4828723#0 4828723#1 84657870#0 84657870#1 84657870#2 84657869#2"/>
    </person>
    <person id="ped17" depart="129.84">
        <walk edges="209114527#7 209114527#6 209114527#5 209114527#4 209114527#3 209114527#2 45586357#0 45586344#3 45586346#0 45586346#1 4824571#4 45639058 45586345#1 45586345#0"/>
    </person>
    <person id="ped18" depart="137.47">
        <walk edges="59851521#14 209114526#0 209114526#1 209114526#2 66227388#1 4726271#0"/>
    </person>
    <person id="ped19" depart="145.11">
        <walk edges="59869096#1 59869096#2 59869096#3 209114520#0 209114520#1 209114520#2 4824571#0 4824571#1 4824571#2 4824571#3 4824571#4 4824571#5 4824571#6 4824571#7 45586358"/>
    </person>
    <person id="ped20" depart="152.75">
        <walk edges="4824712 627278687 -4824710 537957144 389302382#1 389302382#2 389302382#3 389302382#4 389302382#5 371146261#7 59851743#0 59851743#1 59851743#2 59851743#3 537957146 537946552#11 537946552#10 537946552#9 537946552#8 537946552#7 209114498#1 142517768#0 142517768#1 142517768#3 142517768#4 37035107#0 -37035107#1"/>
    </person>
    <person id="ped21" depart="160.39">
        <walk edges="142356191#2 142356191#3 4221194#0 4221194#1 4221194#2 4221194#3 4221194#4 4221194#5 209114517 -140772396#10 140772396#9 -140772396#8 -140772396#7 -140772396#6 -140772396#5 371146261#14 371146261#13 4726271#1 43324938#1 43324938#2 43324938#3 4824702#2 4824702#1 4824703#6 4824703#7 4824703#8 150077812#0 150077812#1 150077812#2"/>
    </person>
    <person id="ped22" depart="168.02">
        <walk edges="-682283993#1 682283988 682283987 43324938#2 43324938#1 4726271#1 4726271#0 66227388#1 209114526#2 209114526#1 90697744 209114497 665610741 4726265 152445636#3 537946552#9 537946552#8 537946552#7 209114498#1 142517766#0 142517766#1"/>
    </person>
    <person id="ped23" depart="175.66">
        <walk edges="130547039 138478958#3 4756454#1 314789426#1 131333220#1 131333220#2 138419778#0 138419778#1 138419778#2 397694470#1 265499402#0 38345628#1 38345628#0 209114519#1 209114519#0 209114527#4 209114527#5 209114527#6 209114527#7 209114527#8 209114527#9 209114527#10 138347489#1 138347489#2 209114527#14 209114527#15 538970942#0 682283994#1 682287255 682283992 4824703#2 149540140#0 -149540140#1 149540140#2"/>
    </person>
    <person id="ped24" depart="183.30">
        <walk edges="4760369#4 4760369#3 -142517768#6 142517768#4 142517768#3 142517768#1 142517768#0 209114498#1 209114498#0 209114517 -140772396#10 140772396#9 -140772396#8 -140772396#7 -140772396#6 -140772396#5 140772396#4 209114527#8 209114527#9 209114527#10 209114527#11"/>
    </person>
    <person id="ped25" depart="190.94">
        <walk edges="209114527#15 209114527#16 140772448#0 140772404"/>
    </person>
    <person id="ped26" depart="198.57">
        <walk edges="149540137#0 149540137#1 149540137#2 149540137#3 149540137#4 371146261#1 371146261#2 371146261#3 371146261#4 371146261#5 371146261#6 371146261#7 371146261#8 371146261#9 371146261#10 371146261#11 371146261#12 371146261#13 371146261#14 371146261#15 371146261#16 66227390#0 209114519#1 209114519#0 209114527#3 209114527#2 45586357#0 728109155#0 731731245"/>
    </person>
    <person id="ped27" depart="206.21">
        <walk edges="4824570#0 4824570#1 209114520#3 397694470#0 265499402#0 335993897 59851521#1 59851521#2 137275200#1 4824557#0 4824557#1 148711386 209114498#0 209114498#1 4693898#3"/>
    </person>
    <person id="ped28" depart="213.85">
        <walk edges="138419772#1 138419772#0 131333220#2 138419778#0 138419778#1 138419778#2 397694470#1 265499402#0 335993897 90697745 27557419#3 27557419#2 27557419#1 27557419#0 66227388#1 66227388#0 314789433#4 4877725"/>
    </person>
    <person id="ped29" depart="221.49">
        <walk edges="138419767#0 88111450 314789429#0 138419772#0 131333220#2 138419778#0 138419778#1 138419778#2 397694470#1 265499402#0 38345628#1 38345628#0 209114519#1 209114519#0 209114527#4 209114527#5 209114527#6 209114527#7 209114527#8"/>
    </person>
    <person id="ped30" depart="229.12">
        <walk edges="96136747#1 371146256 84657867 314994947#0 371146261#6 371146261#7 59851743#0 59851743#1 314789436#0 314789435#1 265499418 90697744 450074243 4652507#3 4652507#2 4652507#1 4652507#0 4824557#0 4824557#1"/>
    </person>
    <person id="ped31" depart="236.76">
        <walk edges="45586347#0 45586349 45586346#0 45586344#3 45586357#0 209114527#1 209114527#0 140772448#5 140772448#4 140772448#3 140772448#2 140772448#1 140772448#0 138347489#5 138347489#6 4824703#1"/>
    </person>
    <person id="ped32" depart="244.40">
        <walk edges="59851521#23 59851521#22 84657870#1 84657870#0 4828723#1 84657862#0 537957150#2 537957150#1 537957150#0"/>
    </person>
    <person id="ped33" depart="252.03">
        <walk edges="142356191#3 142356191#2 142517768#8 -142517768#9"/>
    </person>
    <person id="ped34" depart="259.67">
        <walk edges="193863653 209114527#6 209114527#7 209114527#8 209114527#9 209114527#10 138347489#0 538967642#0 371146261#11 371146261#10 371146261#9 371146261#8 371146261#7 371146261#6 371146261#5 371146261#4 371146261#3 371146261#2 371146261#1 149540137#4 149540137#3 149540137#2 149540137#1"/>
    </person>
    <person id="ped35" depart="267.31">
        <walk edges="140772410 -140772396#10 59851521#9 59851521#8 59851521#7 130764248#5 130764248#4 130764248#3 130764248#2 130764248#1 138347533#1 138347533#0 138347529#2 138347529#1 138347529#0 138478958#5 138478958#4 138478958#3 88111450 314789427 439027698#1 439027698#0 265499406#1 81532718#2"/>
    </person>
    <person id="ped36" depart="274.95">
        <walk edges="671832297#1 209114527#3 209114527#4 209114527#5 193863653"/>
    </person>
    <person id="ped37" depart="282.58">
        <walk edges="4824571#3 4824571#2 4824571#1 4824571#0 397694470#0 265499402#1"/>
    </person>
    <person id="ped38" depart="290.22">
        <walk edges="682284000 682284001#1 4824703#5 -4824702#1 -4824702#2 4824697#3 4824697#2 4824697#1 371146261#8 371146261#7 371146261#6 371146261#5 371146261#4 371146261#3 371146261#2 371146261#1 371146261#0"/>
    </person>
    <person id="ped39" depart="297.86">
        <walk edges="149540118 -4824710 537957144 389302382#1 389302382#2 -96136748#1 96136747#0 96136747#1 142517769#0 142517769#1"/>
    </person>
    <person id="ped40" depart="305.50">
        <walk edges="45586347#3 45586347#2 4824571#2 4824571#1 4824571#0 397694470#0 265499402#0 335993897 90697745 27557419#3 27557419#2 27557419#1 27557419#0 66227388#1 66227388#0 314789433#4 371146261#9 371146261#8 371146261#7 371146261#6 371146261#5 371146261#4 371146261#3 371146261#2 371146261#1 371146261#0 371146247 149539965#4"/>
    </person>
    <person id="ped41" depart="313.13">
        <walk edges="45639060 45586354 45586345#1 45639058 4824571#4 45586346#1 45586346#0 45586344#3 45586357#0 209114527#1 209114527#0 140772448#5 140772448#4 140772448#3 140772448#2 140772448#1 140772448#0 209114527#16 538970942#0 682283994#1 682287255 682283992"/>
    </person>
    <person id="ped42" depart="320.77">
        <walk edges="265499402#4 265499402#3 138419770 209114520#4 209114520#3 209114520#2 209114520#1 209114520#0 59869096#3 45586355#1 193863654 209114519#0 209114527#3 -671832297#0 153897364#6 153897364#5 140772448#5"/>
    </person>
    <person id="ped43" depart="328.41">
        <walk edges="98638605#2 98638605#0 4221194#0 4221194#1 4221194#2"/>
    </person>
    <person id="ped44" depart="336.05">
        <walk edges="-84657872#1 -84657872#0 4828723#0 4828723#1 4828723#2 4828723#3 84657865 98428996#0 98428996#1 98428996#2 -371146256"/>
    </person>
    <person id="ped45" depart="343.68">
        <walk edges="130764248#3 130764248#2 130764248#1 138347533#1 138347533#0 138347529#2 138347529#1 138347529#0 138478958#5 138478958#4 138478958#3 88111450 314789427 439027698#1 4756457#0"/>
    </person>
    <person id="ped46" depart="351.32">
        <walk edges="538970943#0 538970943#1 209114527#1 209114527#2 209114527#3 209114519#0 209114519#1 38345628#0 38345628#1 265499402#0 397694470#1 138419778#2 138419778#1 138419778#0 131333220#2 131333220#1 314789426#1"/>
    </person>
    <person id="ped47" depart="358.96">
        <walk edges="-4824702#0 4824702#1 4824702#2 43324938#3 43324938#2 43324938#1 138347489#0 209114527#10 209114527#9"/>
    </person>
    <person id="ped48" depart="366.60">
        <walk edges="98638605#0 4221194#0 4221194#1 4221194#2 4221194#3 4221194#4 4221194#5 148711386 4824557#1 4824557#0 450074239"/>
    </person>
    <person id="ped49" depart="374.23">
        <walk edges="84657869#0 4828723#3 59851521#19 59851521#18 59851521#17 59851521#16 59851521#15 84657864#0 314789435#1 265499418 439942510 209114515#3 209114515#2 209114515#1 209114515#0 90697745 59851521#0 59869096#1"/>
    </person>
    <person id="ped50" depart="381.87">
        <walk edges="-140772396#4 371146261#14 371146261#13 371146261#12 371146261#11 371146261#10 371146261#9 371146261#8 371146261#7 389302382#5 389302382#4 389302382#3 389302382#2 682283962#0 682283962#1 4218501#0 4828840#0 4828840#1"/>
    </person>
    <person id="ped51" depart="389.51">
        <walk edges="4824702#0 4824702#1 4824702#2 43324938#3 43324938#2 43324938#1 4726271#1 371146261#13 371146261#14 -140772396#5 -140772396#6 -140772396#7 -140772396#8 140772396#9 -140772396#10 209114517 4221194#5 4221194#4 4221194#3 4221194#2 4221194#1 4221194#0 98638605#0 454115422#5 454115422#4 454115422#3"/>
    </person>
    <person id="ped52" depart="397.15">
        <walk edges="149540137#0 149540137#1 149540137#2 149540137#3 149540137#4 371146261#1 98428996#0 84657865 4828723#3 59851521#19 59851521#18 59851521#17 59851521#16 59851521#15 84657864#0 314789435#1 265499418 90697744 209114497 665610741 4726265 140772410 209114517 4221194#5 4221194#4 4824567#0"/>
    </person>
    <person id="ped53" depart="404.78">
        <walk edges="130764248#4 130764248#5 59851521#7 4824557#0 4652507#0 4652507#1 4652507#2 4652507#3 450074243 90697744 265499418 314789435#1 314789436#0 59851743#1 314789433#0"/>
    </person>
    <person id="ped54" depart="412.42">
        <walk edges="371146247 371146261#0 84657863#4 84657863#3 84657863#2 84657863#1"/>
    </person>
    <person id="ped55" depart="420.06">
        <walk edges="671832297#0 -671832297#0 153897364#6 153897364#5 140772448#5 140772448#4 140772448#3 140772448#2 140772448#1 140772448#0 209114527#16 538970942#0 682283994#1 682283994#2 -682283993#3 -682283993#4 -4824702#2 -4824695#1 -4824707 149539968"/>
    </person>
    <person id="ped56" depart="427.70">
        <walk edges="4218426#0 4218426#1 4218426#4 314789432 138347505#0 138347505#2 98428996#0 371146261#2 371146261#3 371146261#4 371146261#5 371146261#6 371146261#7 371146261#8 371146261#9 314789433#4 66227388#0 66227388#1 27557419#0 27557419#1 27557419#2 27557419#3 90697745 59851521#1 138419778#4"/>
    </person>
    <person id="ped57" depart="435.33">
        <walk edges="682283998 -149540140#2 -149540140#1 149540140#0 4824703#2 682283992 682287255 682283994#1 538970942#0 209114527#15 209114527#14 138347489#2 138347489#1 209114527#10 209114527#9 209114527#8 209114527#7 209114527#6 209114527#5 209114527#4 209114519#0 209114519#1 66227390#0"/>
    </person>
    <person id="ped58" depart="442.97">
        <walk edges="153897364#2 153897364#5 153897364#6 -671832297#0 209114527#3 209114519#0 209114519#1 66227390#0 66227390#2 4726268 450074239 4824557#0 4824557#1"/>
    </person>
    <person id="ped59" depart="450.61">
        <walk edges="4693898#3 209114498#1 209114498#0 4221194#5 4221194#4 4824568#0 4824568#2 138347518"/>
    </person>
    <person id="ped60" depart="458.25">
        <walk edges="537946552#4 142517768#1 142517768#3 142517768#4 142517768#6 142517768#7 142517768#8 142517768#10 454115422#0 454115422#1 454115422#2 454115422#3 454115422#4 454115422#5"/>
    </person>
    <person id="ped61" depart="465.88">
        <walk edges="537957150#2 84657862#0 4828723#0 314789430 84657864#2 84657864#1 84657864#0 314789435#1 265499418 90697744 450074243"/>
    </person>
    <person id="ped62" depart="473.52">
        <walk edges="-130547038 4756455#2 130764244#1 130764244#0 -130764246#0 138347533#1 130764248#1 130764248#2 59851521#3 137275200#1 4652507#0 4652507#1 4652507#2 4652507#3 209114514#0"/>
    </person>
    <person id="ped63" depart="481.16">
        <walk edges="-142356185#1 98638605#0 4221194#0 4221194#1 4756456 130784151#0 130784151#1 130764246#0 138347533#1 130764248#1 397694469#0 397694469#1 138419782#2 397694470#1 397694470#0 4824571#0 4824571#1 4824571#2 45586347#2 45586347#3 45586343#3 45586343#2 45586343#1 687042986"/>
    </person>
    <person id="ped64" depart="488.79">
        <walk edges="682283961 4824697#2 4824697#1 4824697#0 314789433#0 59851743#1 59851743#2 59851521#15"/>
    </person>
    <person id="ped65" depart="496.43">
        <walk edges="171934808#4 171934808#5 -84657872#1 537946552#13 537946552#12 537946552#11 537946552#10 152445636#3 4726265 665610741 450074244 209114514#0 209114514#1 209114514#2 209114514#3 439942512 335993897 265499402#0 397694470#0 4824571#0 4824571#1 4824571#2 4824571#3 4824571#4 4824571#5 4824571#6 4824571#7 4824571#8 -4824572"/>
    </person>
    <person id="ped66" depart="504.07">
        <walk edges="682283961 4824697#2 4824697#1 371146261#8 371146261#7 371146261#6 371146261#5 371146261#4 371146261#3 371146261#2 98428996#0 138347505#2 84657863#3 820142543#1"/>
    </person>
    <person id="ped67" depart="511.71">
        <walk edges="-682284020 682284020 -4824704#1 4824704#2 4824698#0 4824698#1 4824698#2 -4824707 627278688 149540118 -4824710 537957144 389302382#0"/>
    </person>
    <person id="ped68" depart="519.34">
        <walk edges="-4824704#2 -4824704#1 -4824704#0 4824702#0 4824702#1 4824702#2 43324938#3 43324938#2 43324938#1 4726271#1 4726271#0 66227388#1 209114526#2 209114526#1 90697744 209114497 665610741 4726265 152445636#3 537946552#9 537946552#8 537946552#7 209114498#1 142517768#0 537946552#3"/>
    </person>
    <person id="ped69" depart="526.98">
        <walk edges="537946552#7 209114498#0 148711386 4824557#1 4824557#0 137275200#1 137275200#0 314789428#1 397694469#1 138419782#2 138419778#2 138419778#1 138419778#0 131333220#3"/>
    </person>
    <person id="ped70" depart="534.62">
        <walk edges="371146261#6 371146261#7 371146261#8 371146261#9 371146261#10 371146261#11 371146261#12 371146261#13 371146261#14 371146261#15 371146261#16 66227390#0 209114519#1 209114519#0 209114527#3 209114527#2 45586357#0 45586344#3"/>
    </person>
    <person id="ped71" depart="542.26">
        <walk edges="149540118 -4824710 537957144 389302382#1 389302382#2 389302382#3 389302382#4 389302382#5 371146261#7 59851743#0 59851743#1 59851743#2 59851743#3 537957146 537946552#11 665610740"/>
    </person>
    <person id="ped72" depart="549.89">
        <walk edges="314789426#2 131333220#1 131333220#2 138419778#0 138419778#1 138419778#2 397694470#1 265499402#0 38345628#1 38345628#0 209114519#1 209114519#0 209114527#3 -671832297#0 153897364#6 153897364#5 140772448#5 140772426"/>
    </person>
    <person id="ped73" depart="557.53">
        <walk edges="454115422#5 98638605#0 4221194#0 4221194#1 4221194#2 4221194#3 4221194#4 4221194#5 209114517 140772410 4726265 665610741 209114497 90697744 265499418 314789435#1 4877725"/>
    </person>
    <person id="ped74" depart="565.17">
        <walk edges="140772396#4 209114527#7 209114527#6 209114527#5 209114527#4 209114519#0 193863654 45586355#1 59869096#3 209114520#0 209114520#1 209114520#2 209114520#3 209114520#4 209114520#5 209114520#6 209114520#7 209114520#8 177044948"/>
    </person>
    <person id="ped75" depart="572.81">
        <walk edges="98428996#2 98428996#1 371146261#2 371146261#3 371146261#4 371146261#5 371146261#6 371146261#7 371146261#8 371146261#9 314789433#4 66227388#0 66227388#1 27557419#0 27557419#1 27557419#2 27557419#3 90697745 335993897 265499402#0 397694470#0 209114520#3 4824570#1"/>
    </person>
    <person id="ped76" depart="580.44">
        <walk edges="314789435#1 211674510 132964155#1 132964155#0 43324938#3"/>
    </person>
    <person id="ped77" depart="588.08">
        <walk edges="130876649#1 209114520#11 81532718#0 259409010#0 81532718#2 265499406#1 439027698#0 439027698#1 314789427 88111450 138419767#0 138419767#1 142519288#0 142519288#1 4760371 142356191#4 142356191#3 142356191#2 142356191#1 142356191#0"/>
    </person>
    <person id="ped78" depart="595.72">
        <walk edges="209114520#0 209114520#1 209114520#2 4824571#0 4824571#1 4824571#2 45586347#2 45639063"/>
    </person>
    <person id="ped79" depart="603.36">
        <walk edges="142356191#4 4221194#0 4221194#1 4221194#2 4221194#3 4221194#4 4221194#5 148711386 4824557#1 4824557#0 450074239 4726268 66227390#2 66227390#0 209114519#1 209114519#0 209114527#3 -671832297#0 153897364#6 153897364#5 140772448#5"/>
    </person>
    <person id="ped80" depart="610.99">
        <walk edges="-4824704#3 -4824704#2 -4824704#1 -4824704#0 4824702#0 4824702#1 4824702#2 43324938#3 43324938#2 43324938#1 4726271#1 371146261#13 371146261#14 -140772396#5 -140772396#6 -140772396#7 -140772396#8 140772396#9 -140772396#10 209114517 4221194#5 4221194#4 4221194#3 4221194#2 4221194#1 4760369#1"/>
    </person>
    <person id="ped81" depart="618.63">
        <walk edges="142356191#3 4221194#0 4221194#1 4221194#2 4221194#3 4221194#4 4221194#5 209114517 -140772396#10 140772396#9 -140772396#8 -140772396#7 -140772396#6 -140772396#5 140772396#4 209114527#8 209114527#9 209114527#10 138347489#1 138347489#2 138347489#3 138347489#4 138347489#5 682283994#0"/>
    </person>
    <person id="ped82" depart="626.27">
        <walk edges="59869096#0 371146261#16 371146261#15 371146261#14 371146261#13 4726271#1 43324938#1 43324938#2 43324938#3 4824702#2 4824702#1 4824702#0 -4824704#0 -4824704#1 -4824704#2 -4824704#3"/>
    </person>
    <person id="ped83" depart="633.91">
        <walk edges="142517768#10 142517768#8 142517768#7 142517768#6 142517768#4 142517768#3 142517768#1 142517768#0 209114498#1 537946552#7 537946552#8 537946552#9 152445636#3 4726265 665610741 209114497 90697744 209114526#1 209114526#2 66227388#1 4726271#0 4726271#1 43324938#1 43324938#2 43324938#3 4824695#1"/>
    </person>
    <person id="ped84" depart="641.54">
        <walk edges="140772448#1 140772448#0 138347489#4 138347489#3 138347489#2 138347489#1 138347489#0 538967642#0 371146261#11 371146261#10 132964155#1"/>
    </person>
    <person id="ped85" depart="649.18">
        <walk edges="728109156 199074117#0 4824571#2 4824571#3 4824571#4 45639058 45586345#1 45586354"/>
    </person>
    <person id="ped86" depart="656.82">
        <walk edges="371146261#4 371146261#5 371146261#6 371146261#7 59851743#0 59851743#1 314789436#0 314789435#1 265499418 90697744 209114497 665610741 4726265 140772410 209114517 4221194#5 538967641"/>
    </person>
    <person id="ped87" depart="664.46">
        <walk edges="545234068 545234067 545234073#1 545234065 454115422#3 454115422#4 454115422#5 98638605#0 142356191#4 4760371 142519288#1 142519288#0 138419767#1 138419767#0 138478958#3 138478958#4"/>
    </person>
    <person id="ped88" depart="672.09">
        <walk edges="130528361#0 130528361#1 4834297 4221194#2 4756456 4756455#2 -130547038 4756454#0 4756454#1 314789426#1 131333220#1 138419772#0 314789429#1"/>
    </person>
    <person id="ped89" depart="679.73">
        <walk edges="314789426#2 131333220#1 131333220#2 138419778#0 138419778#1 138419778#2 397694470#1 265499402#0 335993897 90697745 66227390#2 371146261#16 371146261#15"/>
    </person>
    <person id="ped90" depart="687.37">
        <walk edges="4877725 371146261#9 4824697#1"/>
    </person>
    <person id="ped91" depart="695.01">
        <walk edges="90697744 209114497 665610741 4726265 152445636#3 537946552#9 537946552#8 537946552#7 209114498#1 142517768#0 142517768#1 142517768#3 130528361#1"/>
    </person>
    <person id="ped92" depart="702.64">
        <walk edges="265499406#0 265499406#1 439027698#0 439027698#1 314789427 314789429#0 138419772#0 131333220#2 138419778#0 138419778#1 138419778#2 397694470#1 397694470#0 209114520#2 209114520#1"/>
    </person>
    <person id="ped93" depart="710.28">
        <walk edges="59869096#1 59869096#0 371146261#16 371146261#15 371146261#14 371146261#13 371146261#12 371146261#11 371146261#10 371146261#9 371146261#8 371146261#7 371146261#6 371146261#5 371146261#4 371146261#3 371146261#2 371146261#1 149540137#4 142517769#2"/>
    </person>
    <person id="ped94" depart="717.92">
        <walk edges="138478958#3 138478958#4 138478958#5 138347529#0 138347529#1 138347529#2 138347533#0 138347533#1 130764248#1 130764248#2 59851521#3 137275200#1 4652507#0 4652507#1 4652507#2 4652507#3 450074243 90697744 265499418 314789435#1 314789436#0 314789436#1 142517770 314994947#1"/>
    </person>
    <person id="ped95" depart="725.55">
        <walk edges="314789426#1 131333220#1 131333220#2 138419778#0 138419778#1 138419778#2 397694470#1 265499402#0 38345628#1 38345628#0 209114519#1 209114519#0 209114527#4 209114527#5 209114527#6 209114527#7 209114527#8 209114527#9 209114527#10 138347489#1 138347489#2 209114527#14 209114527#15 538970942#0 682283994#1 682287255 682283992 4824703#2 149540140#0 -149540140#1 149540140#2"/>
    </person>
    <person id="ped96" depart="733.19">
        <walk edges="142517770 138347498 314789433#0 4824697#0 4824697#1 4824697#2 4824697#3 -4824702#2 -4824702#1 -4824702#0 -4824704#0 682284020"/>
    </person>
    <person id="ped97" depart="740.83">
        <walk edges="314789437#0 314789437#1 314789437#2 138347498 314789433#0 4824697#0 371146261#9 371146261#10 371146261#11 371146261#12 371146261#13 371146261#14 371146261#15 371146261#16 59869096#0 59869096#1"/>
    </person>
    <person id="ped98" depart="748.47">
        <walk edges="45586344#4 45586357#0 209114527#2 209114527#3 209114519#0 209114519#1 66227390#0 371146261#16 371146261#15 371146261#14 371146261#13 371146261#12 371146261#11 371146261#10 371146261#9 371146261#8 371146261#7 389302382#5 389302382#4 389302382#3 389302382#2 682283962#0 682283962#1 -4218501#0"/>
    </person>
    <person id="ped99" depart="756.10">
        <walk edges="98638605#3 98638605#2 98638605#0 4221194#0 4221194#1 4221194#2 4221194#3 4221194#4 4221194#5 209114517 140772410 4726265 665610741 209114497 90697744 265499418 314789435#1 84657864#0 59851521#15 59851521#16 59851521#17 59851521#18 59851521#19"/>
    </person>
    <person id="ped100" depart="763.74">
        <walk edges="84657867 314994947#0 371146261#6 371146261#7 371146261#8 4824697#1 4824697#2 4824697#3 -4824702#2 -682283993#4 682287576"/>
    </person>
    <person id="ped101" depart="771.38">
        <walk edges="59851521#5 130764248#3 130764248#2 397694469#0 397694469#1 138419782#2 138419778#2 138419778#1 138419778#0 131333220#3 265499402#4 138419768#0"/>
    </person>
    <person id="ped102" depart="779.02">
        <walk edges="389302382#0 389302382#1 389302382#2 389302382#3 389302382#4 389302382#5 371146261#7 371146261#8 371146261#9 371146261#10 371146261#11 538967642#0 138347489#0 138347489#1 138347489#2 138347489#3 138347489#4 140772448#0"/>
    </person>
    <person id="ped103" depart="786.65">
        <walk edges="265499402#5 138419768#0 209114520#6 209114520#5 209114520#4 4824570#1 45586347#6 45586347#5 45586347#4 45586343#3 45586343#2 45586345#0 45586345#1 45639058 4824571#5 4824571#6 4824571#7 4824571#8 -4824572"/>
    </person>
    <person id="ped104" depart="794.29">
        <walk edges="209114527#7 209114527#6 209114527#5 209114527#4 209114519#0 209114519#1 66227390#0 66227390#2 90697745"/>
    </person>
    <person id="ped105" depart="801.93">
        <walk edges="149540118 -4824710 537957144 389302382#1 389302382#2 389302382#3 389302382#4 389302382#5 371146261#7 59851743#0 59851743#1 314789436#0 314789435#1 265499418 90697744 209114497 665610741 4726265 140772410 209114517 4221194#5 538967641"/>
    </person>
    <person id="ped106" depart="809.57">