<?xml version="1.0" encoding="UTF-8"?>
<!-- generated on 2020-07-14 20:17:46.620285 by $Id$ via randomTrips.py
  options: 
-->
<routes xmlns:xsi="http://www.w3.org/2001/XMLSchema-instance" xsi:noNamespaceSchemaLocation="http://sumo.dlr.de/xsd/routes_file.xsd">
    <vType id="passenger" speedFactor="normc(1.00,0.10,0.20,2.00)" vClass="passenger">
    </vType>
    <trip id="veh0" depart="0.00" departLane="best" from="439027698#0" to="-142517768#3" type="passenger"/>
    <trip id="veh3" depart="24.95" departLane="best" from="54170891#0" to="-4824704#3" type="passenger"/>
    <trip id="veh6" depart="49.91" departLane="best" from="-142517768#10" to="138419768#1" type="passenger"/>
    <trip id="veh7" depart="58.23" departLane="best" from="450074238" to="37035107#1" type="passenger"/>
    <trip id="veh9" depart="74.86" departLane="best" from="4824704#3" to="-130764246#1" type="passenger"/>
    <trip id="veh10" depart="83.18" departLane="best" from="4824704#2" to="4760369#2" type="passenger"/>
    <trip id="veh11" depart="91.50" departLane="best" from="142519288#1" to="138347489#4" type="passenger"/>
    <trip id="veh12" depart="99.82" departLane="best" from="84657869#2" to="150276881" type="passenger"/>
    <trip id="veh13" depart="108.14" departLane="best" from="4824704#2" to="4824567#3" type="passenger"/>
    <trip id="veh14" depart="116.45" departLane="best" from="153897364#2" to="371146249" type="passenger"/>
    <trip id="veh15" depart="124.77" departLane="best" from="4824712" to="4652507#1" type="passenger"/>
    <trip id="veh17" depart="141.41" departLane="best" from="137275200#0" to="149357439" type="passenger"/>
    <trip id="veh18" depart="149.73" departLane="best" from="-4824572" to="149357425#1" type="passenger"/>
    <trip id="veh19" depart="158.04" departLane="best" from="438898636" to="209114497" type="passenger"/>
    <trip id="veh21" depart="174.68" departLane="best" from="138419767#1" to="84657869#0" type="passenger"/>
    <trip id="veh22" depart="183.00" departLane="best" from="130528361#0" to="209114514#3" type="passenger"/>
    <trip id="veh23" depart="191.32" departLane="best" from="98428996#0" to="4723926" type="passenger"/>
    <trip id="veh25" depart="207.95" departLane="best" from="4828723#1" to="4824698#1" type="passenger"/>
    <trip id="veh26" depart="216.27" departLane="best" from="137275200#0" to="-142517768#7" type="passenger"/>
    <trip id="veh27" depart="224.59" departLane="best" from="142517768#3" to="142519288#0" type="passenger"/>
    <trip id="veh29" depart="241.23" departLane="best" from="450074244" to="259409010#1" type="passenger"/>
    <trip id="veh31" depart="257.86" departLane="best" from="138419767#0" to="142517768#4" type="passenger"/>
    <trip id="veh32" depart="266.18" departLane="best" from="4218426#4" to="66227388#1" type="passenger"/>
    <trip id="veh34" depart="282.82" departLane="best" from="-4693898#1" to="-371146256" type="passenger"/>
    <trip id="veh35" depart="291.14" departLane="best" from="-4824695#1" to="4693898#0" type="passenger"/>
    <trip id="veh36" depart="299.45" departLane="best" from="4824703#5" to="260923013#1" type="passenger"/>
    <trip id="veh37" depart="307.77" departLane="best" from="-260923013#1" to="209114514#3" type="passenger"/>
    <trip id="veh39" depart="324.41" departLane="best" from="84657872#1" to="4828840#2" type="passenger"/>
    <trip id="veh40" depart="332.73" departLane="best" from="-138419767#1" to="4824557#1" type="passenger"/>
    <trip id="veh41" depart="341.04" departLane="best" from="-4824698#0" to="265499402#4" type="passenger"/>
    <trip id="veh42" depart="349.36" departLane="best" from="265499406#0" to="84657872#0" type="passenger"/>
    <trip id="veh43" depart="357.68" departLane="best" from="66227388#0" to="4828841#1" type="passenger"/>
    <trip id="veh44" depart="366.00" departLane="best" from="142356191#3" to="4723926" type="passenger"/>
    <trip id="veh45" depart="374.32" departLane="best" from="4221194#3" to="138347489#3" type="passenger"/>
    <trip id="veh46" depart="382.63" departLane="best" from="4824695#2" to="37035107#1" type="passenger"/>
    <trip id="veh47" depart="390.95" departLane="best" from="4824698#2" to="314994947#1" type="passenger"/>
    <trip id="veh49" depart="407.59" departLane="best" from="4828840#2" to="84657870#0" type="passenger"/>
    <trip id="veh51" depart="424.23" departLane="best" from="-37035107#1" to="4824695#1" type="passenger"/>
    <trip id="veh53" depart="440.86" departLane="best" from="138419767#0" to="4828841#1" type="passenger"/>
    <trip id="veh55" depart="457.50" departLane="best" from="314789436#0" to="4824567#3" type="passenger"/>
    <trip id="veh57" depart="474.13" departLane="best" from="98428996#2" to="4723926" type="passenger"/>
    <trip id="veh58" depart="482.45" departLane="best" from="260923013#0" to="314789438#0" type="passenger"/>
    <trip id="veh59" depart="490.77" departLane="best" from="-4824702#2" to="142517766#2" type="passenger"/>
    <trip id="veh60" depart="499.09" departLane="best" from="142519288#1" to="43324938#2" type="passenger"/>
    <trip id="veh61" depart="507.41" departLane="best" from="4828726#0" to="-4824698#1" type="passenger"/>
    <trip id="veh62" depart="515.73" departLane="best" from="138347489#2" to="4756454#1" type="passenger"/>
    <trip id="veh63" depart="524.04" departLane="best" from="84657864#1" to="4221194#0" type="passenger"/>
    <trip id="veh64" depart="532.36" departLane="best" from="4824704#2" to="138419767#0" type="passenger"/>
    <trip id="veh65" depart="540.68" departLane="best" from="-4824572" to="265499402#3" type="passenger"/>
    <trip id="veh67" depart="557.32" departLane="best" from="96136748#0" to="-84657872#1" type="passenger"/>
    <trip id="veh68" depart="565.63" departLane="best" from="130784151#0" to="27557419#2" type="passenger"/>
    <trip id="veh72" depart="598.91" departLane="best" from="4828723#3" to="138347489#9" type="passenger"/>
    <trip id="veh73" depart="607.22" departLane="best" from="153897364#2" to="98638605#2" type="passenger"/>
    <trip id="veh74" depart="615.54" departLane="best" from="138419767#0" to="4824702#1" type="passenger"/>
    <trip id="veh75" depart="623.86" departLane="best" from="265499406#0" to="260923013#1" type="passenger"/>
    <trip id="veh76" depart="632.18" departLane="best" from="84657869#2" to="98638605#3" type="passenger"/>
    <trip id="veh78" depart="648.82" departLane="best" from="-260923013#1" to="43324938#1" type="passenger"/>
    <trip id="veh79" depart="657.13" departLane="best" from="314789426#0" to="4828726#2" type="passenger"/>
    <trip id="veh80" depart="665.45" departLane="best" from="-96136748#0" to="90697744" type="passenger"/>
    <trip id="veh81" depart="673.77" departLane="best" from="-371146256" to="138347514#1" type="passenger"/>
    <trip id="veh82" depart="682.09" departLane="best" from="4218501#0" to="4756456" type="passenger"/>
    <trip id="veh83" depart="690.41" departLane="best" from="138347489#1" to="130764244#1" type="passenger"/>
    <trip id="veh85" depart="707.04" departLane="best" from="4218501#0" to="4652507#1" type="passenger"/>
    <trip id="veh88" depart="732.00" departLane="best" from="138347489#2" to="259409010#1" type="passenger"/>
    <trip id="veh91" depart="756.95" departLane="best" from="138419767#0" to="84657866#2" type="passenger"/>
    <trip id="veh92" depart="765.27" departLane="best" from="4824712" to="4760369#4" type="passenger"/>
    <trip id="veh93" depart="773.59" departLane="best" from="4221194#4" to="98638605#2" type="passenger"/>
    <trip id="veh94" depart="781.91" departLane="best" from="450074243" to="-138419767#0" type="passenger"/>
    <trip id="veh95" depart="790.22" departLane="best" from="-4824704#4" to="130547039" type="passenger"/>
    <trip id="veh96" depart="798.54" departLane="best" from="-4824572" to="371146249" type="passenger"/>
    <trip id="veh97" depart="806.86" departLane="best" from="438898636" to="142517770" type="passenger"/>
    <trip id="veh99" depart="823.50" departLane="best" from="209114515#0" to="149357425#1" type="passenger"/>
    <trip id="veh102" depart="848.45" departLane="best" from="209114515#2" to="-138419767#0" type="passenger"/>
    <trip id="veh103" depart="856.77" departLane="best" from="-37035107#1" to="4877725" type="passenger"/>
    <trip id="veh104" depart="865.09" departLane="best" from="4824712" to="4221194#5" type="passenger"/>
    <trip id="veh105" depart="873.41" departLane="best" from="4824703#7" to="4828840#2" type="passenger"/>
    <trip id="veh106" depart="881.72" departLane="best" from="4824702#0" to="4877725" type="passenger"/>
    <trip id="veh107" depart="890.04" departLane="best" from="4828726#0" to="98428996#0" type="passenger"/>
    <trip id="veh108" depart="898.36" departLane="best" from="4824707" to="4834297" type="passenger"/>
    <trip id="veh109" depart="906.68" departLane="best" from="-142517768#10" to="4824567#3" type="passenger"/>
    <trip id="veh110" depart="915.00" departLane="best" from="4824704#0" to="4828840#3" type="passenger"/>
    <trip id="veh111" depart="923.31" departLane="best" from="4824707" to="142519288#0" type="passenger"/>
    <trip id="veh112" depart="931.63" departLane="best" from="4824703#1" to="-96136748#1" type="passenger"/>
    <trip id="veh116" depart="964.91" departLane="best" from="4824703#6" to="142517766#2" type="passenger"/>
    <trip id="veh117" depart="973.22" departLane="best" from="-142517768#10" to="138419767#1" type="passenger"/>
    <trip id="veh118" depart="981.54" departLane="best" from="84657870#2" to="149357425#1" type="passenger"/>
    <trip id="veh119" depart="989.86" departLane="best" from="96136747#0" to="37035107#0" type="passenger"/>
    <trip id="veh120" depart="998.18" departLane="best" from="84657865" to="130547039" type="passenger"/>
    <trip id="veh121" depart="1006.50" departLane="best" from="-4824695#1" to="265499402#4" type="passenger"/>
    <trip id="veh123" depart="1023.13" departLane="best" from="4221194#2" to="314789437#1" type="passenger"/>
    <trip id="veh124" depart="1031.45" departLane="best" from="153897364#7" to="4221194#3" type="passenger"/>
    <trip id="veh125" depart="1039.77" departLane="best" from="138347505#2" to="4760369#4" type="passenger"/>
    <trip id="veh126" depart="1048.09" departLane="best" from="-130547038" to="84657865" type="passenger"/>
    <trip id="veh128" depart="1064.72" departLane="best" from="152445636#3" to="-4824698#1" type="passenger"/>
    <trip id="veh129" depart="1073.04" departLane="best" from="4652507#2" to="150276881" type="passenger"/>
    <trip id="veh130" depart="1081.36" departLane="best" from="142517768#10" to="4828724#2" type="passenger"/>
    <trip id="veh132" depart="1098.00" departLane="best" from="142517768#0" to="259409010#2" type="passenger"/>
    <trip id="veh134" depart="1114.63" departLane="best" from="-4824704#2" to="260923013#1" type="passenger"/>
    <trip id="veh135" depart="1122.95" departLane="best" from="84657865" to="4756456" type="passenger"/>
    <trip id="veh136" depart="1131.27" departLane="best" from="54170891#0" to="450074244" type="passenger"/>
    <trip id="veh138" depart="1147.90" departLane="best" from="438898636" to="150276881" type="passenger"/>
    <trip id="veh141" depart="1172.86" departLane="best" from="4828723#3" to="-4824702#0" type="passenger"/>
    <trip id="veh143" depart="1189.50" departLane="best" from="4824573#0" to="4824697#2" type="passenger"/>
    <trip id="veh144" depart="1197.81" departLane="best" from="314789428#1" to="-4218501#0" type="passenger"/>
    <trip id="veh145" depart="1206.13" departLane="best" from="265499406#0" to="4824703#8" type="passenger"/>
    <trip id="veh146" depart="1214.45" departLane="best" from="4693898#0" to="98638605#3" type="passenger"/>
    <trip id="veh147" depart="1222.77" departLane="best" from="4218501#0" to="84657870#1" type="passenger"/>
    <trip id="veh149" depart="1239.40" departLane="best" from="4824712" to="37035107#1" type="passenger"/>
    <trip id="veh150" depart="1247.72" departLane="best" from="54170891#0" to="4824568#0" type="passenger"/>
    <trip id="veh153" depart="1272.68" departLane="best" from="438898636" to="149357425#0" type="passenger"/>
    <trip id="veh154" depart="1281.00" departLane="best" from="-37035107#1" to="149357425#1" type="passenger"/>
    <trip id="veh156" depart="1297.63" departLane="best" from="137275200#1" to="4760369#0" type="passenger"/>
    <trip id="veh158" depart="1314.27" departLane="best" from="209114497" to="37035107#1" type="passenger"/>
    <trip id="veh160" depart="1330.90" departLane="best" from="4218426#1" to="4760369#1" type="passenger"/>
    <trip id="veh164" depart="1364.18" departLane="best" from="171934808#5" to="138347489#9" type="passenger"/>
    <trip id="veh166" depart="1380.81" departLane="best" from="171934808#0" to="4218426#4" type="passenger"/>
    <trip id="veh167" depart="1389.13" departLane="best" from="-142517768#10" to="4723926" type="passenger"/>
    <trip id="veh169" depart="1405.77" departLane="best" from="-142519288#1" to="209114514#2" type="passenger"/>
    <trip id="veh170" depart="1414.09" departLane="best" from="4824695#2" to="209114514#2" type="passenger"/>
    <trip id="veh171" depart="1422.40" departLane="best" from="4824573#1" to="4824711" type="passenger"/>
    <trip id="veh172" depart="1430.72" departLane="best" from="138347505#0" to="-4824704#1" type="passenger"/>
    <trip id="veh174" depart="1447.36" departLane="best" from="450074238" to="4824702#0" type="passenger"/>
    <trip id="veh175" depart="1455.68" departLane="best" from="84657867" to="138419768#1" type="passenger"/>
    <trip id="veh176" depart="1463.99" departLane="best" from="-142517768#0" to="138347489#2" type="passenger"/>
    <trip id="veh177" depart="1472.31" departLane="best" from="-4824704#1" to="4756454#1" type="passenger"/>
    <trip id="veh178" depart="1480.63" departLane="best" from="371146256" to="142356191#4" type="passenger"/>
    <trip id="veh179" depart="1488.95" departLane="best" from="4756455#2" to="4824697#1" type="passenger"/>
    <trip id="veh180" depart="1497.27" departLane="best" from="130528361#0" to="450074238" type="passenger"/>
    <trip id="veh181" depart="1505.59" departLane="best" from="4824710" to="90697745" type="passenger"/>
    <trip id="veh182" depart="1513.90" departLane="best" from="-4824695#1" to="-142517768#3" type="passenger"/>
    <trip id="veh186" depart="1547.18" departLane="best" from="-4824572" to="4824697#3" type="passenger"/>
    <trip id="veh188" depart="1563.81" departLane="best" from="-4824702#2" to="98638605#0" type="passenger"/>
    <trip id="veh189" depart="1572.13" departLane="best" from="4824702#1" to="152445636#3" type="passenger"/>
    <trip id="veh190" depart="1580.45" departLane="best" from="314789426#1" to="152445636#1" type="passenger"/>
    <trip id="veh191" depart="1588.77" departLane="best" from="4828723#3" to="4824704#4" type="passenger"/>
    <trip id="veh192" depart="1597.08" departLane="best" from="-4824572" to="90697744" type="passenger"/>
    <trip id="veh193" depart="1605.40" departLane="best" from="438898636" to="4824708" type="passenger"/>
    <trip id="veh198" depart="1646.99" departLane="best" from="4828840#3" to="142517768#3" type="passenger"/>
    <trip id="veh200" depart="1663.63" departLane="best" from="153897364#2" to="-142517768#5" type="passenger"/>
    <trip id="veh202" depart="1680.27" departLane="best" from="142519288#1" to="4834297" type="passenger"/>
    <trip id="veh203" depart="1688.58" departLane="best" from="-138419767#1" to="84657870#0" type="passenger"/>
    <trip id="veh204" depart="1696.90" departLane="best" from="-4218501#1" to="4824557#1" type="passenger"/>
    <trip id="veh206" depart="1713.54" departLane="best" from="4726271#1" to="4723926" type="passenger"/>
    <trip id="veh209" depart="1738.49" departLane="best" from="4218426#0" to="314789426#3" type="passenger"/>
    <trip id="veh210" depart="1746.81" departLane="best" from="138347505#0" to="130764244#1" type="passenger"/>
    <trip id="veh211" depart="1755.13" departLane="best" from="314789435#1" to="4824695#2" type="passenger"/>
    <trip id="veh212" depart="1763.45" departLane="best" from="130764244#1" to="142356191#3" type="passenger"/>
    <trip id="veh215" depart="1788.40" departLane="best" from="142356191#0" to="-96136747#0" type="passenger"/>
    <trip id="veh216" depart="1796.72" departLane="best" from="130784151#1" to="142517766#2" type="passenger"/>
    <trip id="veh217" depart="1805.04" departLane="best" from="130547039" to="-142356185#1" type="passenger"/>
    <trip id="veh218" depart="1813.36" departLane="best" from="314789433#4" to="149357425#0" type="passenger"/>
    <trip id="veh219" depart="1821.67" departLane="best" from="90697744" to="371146249" type="passenger"/>
    <trip id="veh220" depart="1829.99" departLane="best" from="4828726#0" to="314789432" type="passenger"/>
    <trip id="veh223" depart="1854.95" departLane="best" from="130764244#1" to="-4218501#0" type="passenger"/>
    <trip id="veh225" depart="1871.58" departLane="best" from="4824710" to="259409010#2" type="passenger"/>
    <trip id="veh226" depart="1879.90" departLane="best" from="-260923013#0" to="138347489#1" type="passenger"/>
    <trip id="veh227" depart="1888.22" departLane="best" from="98428996#2" to="130764244#1" type="passenger"/>
    <trip id="veh228" depart="1896.54" departLane="best" from="4824703#2" to="142517766#2" type="passenger"/>
    <trip id="veh233" depart="1938.13" departLane="best" from="130528361#1" to="-4824702#1" type="passenger"/>
    <trip id="veh234" depart="1946.45" departLane="best" from="137275200#1" to="4760369#4" type="passenger"/>
    <trip id="veh235" depart="1954.77" departLane="best" from="4756456" to="27729257#0" type="passenger"/>
    <trip id="veh236" depart="1963.08" departLane="best" from="209114515#1" to="37035107#1" type="passenger"/>
    <trip id="veh238" depart="1979.72" departLane="best" from="4824573#0" to="4221194#0" type="passenger"/>
    <trip id="veh239" depart="1988.04" departLane="best" from="142356191#0" to="130764246#1" type="passenger"/>
    <trip id="veh240" depart="1996.36" departLane="best" from="4726271#0" to="4760369#3" type="passenger"/>
    <trip id="veh242" depart="2012.99" departLane="best" from="-142517768#5" to="265499402#3" type="passenger"/>
    <trip id="veh243" depart="2021.31" departLane="best" from="4824712" to="4221194#2" type="passenger"/>
    <trip id="veh244" depart="2029.63" departLane="best" from="84657869#0" to="98638605#3" type="passenger"/>
    <trip id="veh245" depart="2037.95" departLane="best" from="4693898#2" to="142519288#1" type="passenger"/>
    <trip id="veh248" depart="2062.90" departLane="best" from="4218426#4" to="4693898#3" type="passenger"/>
    <trip id="veh250" depart="2079.54" departLane="best" from="149539965#0" to="150276881" type="passenger"/>
    <trip id="veh251" depart="2087.86" departLane="best" from="4693898#1" to="4828840#1" type="passenger"/>
    <trip id="veh252" depart="2096.17" departLane="best" from="142517769#1" to="4760369#0" type="passenger"/>
    <trip id="veh253" depart="2104.49" departLane="best" from="142356191#0" to="84657869#3" type="passenger"/>
    <trip id="veh254" depart="2112.81" departLane="best" from="4824708" to="371146247" type="passenger"/>
    <trip id="veh255" depart="2121.13" departLane="best" from="265499406#0" to="149539968" type="passenger"/>
    <trip id="veh256" depart="2129.45" departLane="best" from="142517768#7" to="96136747#1" type="passenger"/>
    <trip id="veh257" depart="2137.76" departLane="best" from="96136748#1" to="4726269" type="passenger"/>
    <trip id="veh258" depart="2146.08" departLane="best" from="314789437#0" to="260923013#1" type="passenger"/>
    <trip id="veh259" depart="2154.40" departLane="best" from="4824695#1" to="142356185#0" type="passenger"/>
    <trip id="veh260" depart="2162.72" departLane="best" from="265499406#0" to="130764244#0" type="passenger"/>
    <trip id="veh261" depart="2171.04" departLane="best" from="4824712" to="314789433#4" type="passenger"/>
    <trip id="veh262" depart="2179.36" departLane="best" from="4760371" to="314789437#0" type="passenger"/>
    <trip id="veh264" depart="2195.99" departLane="best" from="96136747#0" to="142517768#10" type="passenger"/>
    <trip id="veh266" depart="2212.63" departLane="best" from="314789426#2" to="4824704#4" type="passenger"/>
    <trip id="veh268" depart="2229.26" departLane="best" from="4218501#0" to="98638605#3" type="passenger"/>
    <trip id="veh270" depart="2245.90" departLane="best" from="314994947#1" to="37035107#1" type="passenger"/>
    <trip id="veh271" depart="2254.22" departLane="best" from="265499406#0" to="149539968" type="passenger"/>
    <trip id="veh272" depart="2262.54" departLane="best" from="130764246#1" to="4760369#2" type="passenger"/>
    <trip id="veh273" depart="2270.86" departLane="best" from="4218426#0" to="142517766#2" type="passenger"/>
    <trip id="veh274" depart="2279.17" departLane="best" from="4824698#1" to="-260923013#0" type="passenger"/>
    <trip id="veh277" depart="2304.13" departLane="best" from="4652507#2" to="4824704#4" type="passenger"/>
    <trip id="veh278" depart="2312.45" departLane="best" from="-142517768#3" to="314789435#1" type="passenger"/>
    <trip id="veh280" depart="2329.08" departLane="best" from="4824557#1" to="260923013#0" type="passenger"/>
    <trip id="veh282" depart="2345.72" departLane="best" from="4828724#1" to="4828840#1" type="passenger"/>
    <trip id="veh283" depart="2354.04" departLane="best" from="153897364#2" to="149539968" type="passenger"/>
    <trip id="veh284" depart="2362.35" departLane="best" from="4824557#0" to="4824695#1" type="passenger"/>
    <trip id="veh286" depart="2378.99" departLane="best" from="665610741" to="98638605#3" type="passenger"/>
    <trip id="veh287" depart="2387.31" departLane="best" from="-4824572" to="4693898#3" type="passenger"/>
    <trip id="veh290" depart="2412.26" departLane="best" from="-142517768#9" to="4824703#6" type="passenger"/>
    <trip id="veh291" depart="2420.58" departLane="best" from="142356191#0" to="209114514#1" type="passenger"/>
    <trip id="veh292" depart="2428.90" departLane="best" from="130528361#0" to="-4824704#0" type="passenger"/>
    <trip id="veh294" depart="2445.54" departLane="best" from="138347505#2" to="142517768#8" type="passenger"/>
    <trip id="veh295" depart="2453.85" departLane="best" from="-138419767#1" to="4824704#0" type="passenger"/>
    <trip id="veh297" depart="2470.49" departLane="best" from="149357439" to="43324938#2" type="passenger"/>
    <trip id="veh298" depart="2478.81" departLane="best" from="439027698#0" to="265499402#0" type="passenger"/>
    <trip id="veh300" depart="2495.45" departLane="best" from="4218426#0" to="4221194#2" type="passenger"/>
    <trip id="veh302" depart="2512.08" departLane="best" from="-142519288#0" to="450074238" type="passenger"/>
    <trip id="veh304" depart="2528.72" departLane="best" from="142356191#0" to="4824703#7" type="passenger"/>
    <trip id="veh310" depart="2578.63" departLane="best" from="4824568#0" to="-4824707" type="passenger"/>
    <trip id="veh313" depart="2603.58" departLane="best" from="4824710" to="314789428#1" type="passenger"/>
    <trip id="veh315" depart="2620.22" departLane="best" from="4824567#0" to="98428996#1" type="passenger"/>
    <trip id="veh316" depart="2628.54" departLane="best" from="84657872#0" to="4824704#0" type="passenger"/>
    <trip id="veh317" depart="2636.85" departLane="best" from="152445636#3" to="4824703#2" type="passenger"/>
    <trip id="veh318" depart="2645.17" departLane="best" from="265499406#0" to="4756455#4" type="passenger"/>
    <trip id="veh319" depart="2653.49" departLane="best" from="-4824695#1" to="142517766#2" type="passenger"/>
    <trip id="veh320" depart="2661.81" departLane="best" from="-142517768#10" to="4877725" type="passenger"/>
    <trip id="veh322" depart="2678.44" departLane="best" from="142356191#4" to="259409010#2" type="passenger"/>
    <trip id="veh323" depart="2686.76" departLane="best" from="-4824704#4" to="84657870#0" type="passenger"/>
    <trip id="veh325" depart="2703.40" departLane="best" from="-4824704#4" to="27729257#0" type="passenger"/>
    <trip id="veh326" depart="2711.72" departLane="best" from="84657866#1" to="260923013#1" type="passenger"/>
    <trip id="veh330" depart="2744.99" departLane="best" from="84657869#0" to="-142517768#7" type="passenger"/>
    <trip id="veh331" depart="2753.31" departLane="best" from="153897364#0" to="27557419#0" type="passenger"/>
    <trip id="veh333" depart="2769.94" departLane="best" from="152445636#0" to="259409010#2" type="passenger"/>
    <trip id="veh334" depart="2778.26" departLane="best" from="4652507#2" to="4723926" type="passenger"/>
    <trip id="veh335" depart="2786.58" departLane="best" from="4218501#0" to="-142517768#0" type="passenger"/>
    <trip id="veh336" depart="2794.90" departLane="best" from="4824703#1" to="142517768#10" type="passenger"/>
    <trip id="veh337" depart="2803.22" departLane="best" from="-4824704#1" to="4218426#4" type="passenger"/>
    <trip id="veh338" depart="2811.53" departLane="best" from="-37035107#1" to="4824697#0" type="passenger"/>
    <trip id="veh340" depart="2828.17" departLane="best" from="4828726#1" to="150276881" type="passenger"/>
    <trip id="veh342" depart="2844.81" departLane="best" from="-130764246#0" to="4828840#1" type="passenger"/>
    <trip id="veh343" depart="2853.13" departLane="best" from="-4824707" to="130784151#1" type="passenger"/>
    <trip id="veh344" depart="2861.44" departLane="best" from="138347498" to="138347489#9" type="passenger"/>
    <trip id="veh346" depart="2878.08" departLane="best" from="130528361#1" to="-4218501#1" type="passenger"/>
    <trip id="veh348" depart="2894.72" departLane="best" from="4824698#2" to="314789437#2" type="passenger"/>
    <trip id="veh349" depart="2903.03" departLane="best" from="-4824695#1" to="314789436#0" type="passenger"/>
    <trip id="veh350" depart="2911.35" departLane="best" from="84657866#1" to="-260923013#0" type="passenger"/>
    <trip id="veh351" depart="2919.67" departLane="best" from="4824702#1" to="4828841#0" type="passenger"/>
    <trip id="veh353" depart="2936.31" departLane="best" from="27729257#0" to="259409010#2" type="passenger"/>
    <trip id="veh354" depart="2944.63" departLane="best" from="438898636" to="37035107#1" type="passenger"/>
    <trip id="veh355" depart="2952.94" departLane="best" from="4221194#1" to="-96136747#0" type="passenger"/>
    <trip id="veh356" depart="2961.26" departLane="best" from="4756455#4" to="4828726#2" type="passenger"/>
    <trip id="veh357" depart="2969.58" departLane="best" from="4824557#1" to="142356191#3" type="passenger"/>
    <trip id="veh359" depart="2986.22" departLane="best" from="142519288#1" to="27729257#0" type="passenger"/>
    <trip id="veh360" depart="2994.53" departLane="best" from="209114515#1" to="4756454#0" type="passenger"/>
    <trip id="veh361" depart="3002.85" departLane="best" from="682283961" to="-4824698#0" type="passenger"/>
    <trip id="veh362" depart="3011.17" departLane="best" from="-4824572" to="4824567#3" type="passenger"/>
    <trip id="veh363" depart="3019.49" departLane="best" from="142517769#1" to="130764246#0" type="passenger"/>
    <trip id="veh364" depart="3027.81" departLane="best" from="149539965#4" to="4756454#0" type="passenger"/>
    <trip id="veh365" depart="3036.12" departLane="best" from="4824573#0" to="4828841#1" type="passenger"/>
    <trip id="veh366" depart="3044.44" departLane="best" from="4824557#1" to="96136747#1" type="passenger"/>
    <trip id="veh368" depart="3061.08" departLane="best" from="4218426#0" to="142356191#2" type="passenger"/>
    <trip id="veh369" depart="3069.40" departLane="best" from="-4824695#1" to="4828724#1" type="passenger"/>
    <trip id="veh370" depart="3077.72" departLane="best" from="4218426#0" to="4824704#1" type="passenger"/>
    <trip id="veh371" depart="3086.03" departLane="best" from="4824710" to="450074244" type="passenger"/>
    <trip id="veh372" depart="3094.35" departLane="best" from="439027698#1" to="-142517768#3" type="passenger"/>
    <trip id="veh373" depart="3102.67" departLane="best" from="138419767#1" to="138347505#2" type="passenger"/>
    <trip id="veh374" depart="3110.99" departLane="best" from="4756456" to="149539965#4" type="passenger"/>
    <trip id="veh375" depart="3119.31" departLane="best" from="142519288#1" to="-130764246#1" type="passenger"/>
    <trip id="veh376" depart="3127.62" departLane="best" from="4828726#1" to="4218426#4" type="passenger"/>
    <trip id="veh377" depart="3135.94" departLane="best" from="171934808#0" to="137275200#0" type="passenger"/>
    <trip id="veh378" depart="3144.26" departLane="best" from="438898636" to="-142517768#6" type="passenger"/>
    <trip id="veh380" depart="3160.90" departLane="best" from="153897364#0" to="4824557#1" type="passenger"/>
    <trip id="veh381" depart="3169.22" departLane="best" from="4824698#1" to="4218501#1" type="passenger"/>
    <trip id="veh382" depart="3177.53" departLane="best" from="-96136748#0" to="4652507#0" type="passenger"/>
    <trip id="veh384" depart="3194.17" departLane="best" from="4824573#2" to="130547039" type="passenger"/>
    <trip id="veh385" depart="3202.49" departLane="best" from="209114515#3" to="149357425#1" type="passenger"/>
    <trip id="veh389" depart="3235.76" departLane="best" from="138347505#2" to="150276881" type="passenger"/>
    <trip id="veh390" depart="3244.08" departLane="best" from="4756456" to="314789435#1" type="passenger"/>
    <trip id="veh391" depart="3252.40" departLane="best" from="-37035107#1" to="4828840#2" type="passenger"/>
    <trip id="veh392" depart="3260.71" departLane="best" from="665610741" to="4828840#3" type="passenger"/>