<?xml version="1.0" encoding="UTF-8"?>
<!-- generated on 2020-06-13 23:23:05.957553 by $Id$ via randomTrips.py
  options: 
-->
<routes xmlns:xsi="http://www.w3.org/2001/XMLSchema-instance" xsi:noNamespaceSchemaLocation="http://sumo.dlr.de/xsd/routes_file.xsd">
    <vType id="passenger" speedFactor="normc(1.00,0.10,0.20,2.00)" vClass="passenger">
    </vType>
    <trip id="veh0" depart="0.00" departLane="best" from="4702468#0" to="42368106#1" type="passenger"/>
    <trip id="veh1" depart="60.46" departLane="best" from="301592609" to="42368106#1" type="passenger"/>
    <trip id="veh2" depart="120.93" departLane="best" from="4702468#0" to="42368106#1" type="passenger"/>
    <trip id="veh3" depart="181.39" departLane="best" from="101325123#0" to="42368106#1" type="passenger"/>
    <trip id="veh4" depart="241.86" departLane="best" from="139015291" to="42368106#1" type="passenger"/>
    <trip id="veh5" depart="302.32" departLane="best" from="301592609" to="42368106#1" type="passenger"/>
    <trip id="veh6" depart="362.78" departLane="best" from="101325123#0" to="42368106#1" type="passenger"/>
    <trip id="veh7" depart="423.25" departLane="best" from="101325123#0" to="42368106#1" type="passenger"/>
    <trip id="veh8" depart="483.71" departLane="best" from="4702468#0" to="42368106#1" type="passenger"/>
    <trip id="veh10" depart="604.64" departLane="best" from="4702468#0" to="42368106#1" type="passenger"/>
    <trip id="veh15" depart="906.96" departLane="best" from="101325123#0" to="42368106#1" type="passenger"/>
    <trip id="veh17" depart="1027.89" departLane="best" from="4702468#0" to="42368106#1" type="passenger"/>
    <trip id="veh19" depart="1148.82" departLane="best" from="139015291" to="42368106#1" type="passenger"/>
    <trip id="veh22" depart="1330.21" departLane="best" from="101325123#0" to="42368106#1" type="passenger"/>
    <trip id="veh24" depart="1451.14" departLane="best" from="4702468#0" to="42368106#1" type="passenger"/>
    <trip id="veh25" depart="1511.60" departLane="best" from="4702468#0" to="42368106#1" type="passenger"/>
    <trip id="veh26" depart="1572.07" departLane="best" from="301592609" to="42368106#1" type="passenger"/>
    <trip id="veh27" depart="1632.53" departLane="best" from="101325123#0" to="42368106#1" type="passenger"/>
    <trip id="veh28" depart="1693.00" departLane="best" from="101325123#0" to="42368106#1" type="passenger"/>
    <trip id="veh29" depart="1753.46" departLane="best" from="4702468#0" to="42368106#1" type="passenger"/>
    <trip id="veh30" depart="1813.92" departLane="best" from="4702468#0" to="42368106#1" type="passenger"/>
    <trip id="veh31" depart="1874.39" departLane="best" from="301592609" to="42368106#1" type="passenger"/>
    <trip id="veh32" depart="1934.85" departLane="best" from="4702468#0" to="42368106#1" type="passenger"/>
    <trip id="veh33" depart="1995.32" departLane="best" from="101325123#0" to="42368106#1" type="passenger"/>
    <trip id="veh35" depart="2116.24" departLane="best" from="301592609" to="42368106#1" type="passenger"/>
    <trip id="veh37" depart="2237.17" departLane="best" from="301592609" to="42368106#1" type="passenger"/>
    <trip id="veh39" depart="2358.10" departLane="best" from="4702468#0" to="42368106#1" type="passenger"/>
    <trip id="veh40" depart="2418.56" departLane="best" from="4702468#0" to="42368106#1" type="passenger"/>
    <trip id="veh42" depart="2539.49" departLane="best" from="4702468#0" to="42368106#1" type="passenger"/>
    <trip id="veh43" depart="2599.96" departLane="best" from="101325123#0" to="42368106#1" type="passenger"/>
    <trip id="veh44" depart="2660.42" departLane="best" from="101325123#0" to="42368106#1" type="passenger"/>
    <trip id="veh49" depart="2962.74" departLane="best" from="101325123#0" to="42368106#1" type="passenger"/>
    <trip id="veh50" depart="3023.21" departLane="best" from="4702468#0" to="42368106#1" type="passenger"/>
    <trip id="veh51" depart="3083.67" departLane="best" from="101325123#0" to="42368106#1" type="passenger"/>
    <trip id="veh52" depart="3144.13" departLane="best" from="4702468#0" to="42368106#1" type="passenger"/>
    <trip id="veh53" depart="3204.60" departLane="best" from="301592609" to="42368106#1" type="passenger"/>
    <trip id="veh57" depart="3446.45" departLane="best" from="301592609" to="42368106#1" type="passenger"/>
    <trip id="veh59" depart="3567.38" departLane="best" from="4702468#0" to="42368106#1" type="passenger"/>
</routes>
